7847064
  -OEChem-06241222483D

 50 52  0     0  0  0  0  0  0999 V2000
   -0.8379    0.4476    0.7273 O   0  0  0  0  0  0  0  0  0  0  0  0
   -2.1415    0.4661    2.6244 O   0  0  0  0  0  0  0  0  0  0  0  0
    1.5280    0.5501   -0.5736 O   0  0  0  0  0  0  0  0  0  0  0  0
    4.2537   -1.4134    0.8818 O   0  0  0  0  0  0  0  0  0  0  0  0
   -5.2912   -0.0106   -1.2827 N   0  0  0  0  0  0  0  0  0  0  0  0
    2.7238    0.8169    1.3997 N   0  0  0  0  0  0  0  0  0  0  0  0
    3.9356    0.8773    0.7561 N   0  0  0  0  0  0  0  0  0  0  0  0
   -3.7611    1.3684   -0.0233 C   0  0  0  0  0  0  0  0  0  0  0  0
   -3.1486    0.2281    0.4764 C   0  0  0  0  0  0  0  0  0  0  0  0
   -4.8192    1.1955   -0.8923 C   0  0  0  0  0  0  0  0  0  0  0  0
   -3.6060   -1.0413    0.0977 C   0  0  0  0  0  0  0  0  0  0  0  0
   -4.6949   -1.1154   -0.7961 C   0  0  0  0  0  0  0  0  0  0  0  0
   -5.5254    2.3792   -1.4686 C   0  0  0  0  0  0  0  0  0  0  0  0
   -3.2984    2.7347    0.3595 C   0  0  0  0  0  0  0  0  0  0  0  0
   -3.0075   -2.2152    0.5859 C   0  0  0  0  0  0  0  0  0  0  0  0
   -5.1489   -2.3767   -1.1720 C   0  0  0  0  0  0  0  0  0  0  0  0
   -2.0251    0.3911    1.3988 C   0  0  0  0  0  0  0  0  0  0  0  0
   -6.6944    2.8342   -0.6004 C   0  0  0  0  0  0  0  0  0  0  0  0
   -3.4819   -3.4634    0.1932 C   0  0  0  0  0  0  0  0  0  0  0  0
   -4.5539   -3.5439   -0.6869 C   0  0  0  0  0  0  0  0  0  0  0  0
    0.3409    0.6052    1.5243 C   0  0  0  0  0  0  0  0  0  0  0  0
    1.5746    0.6515    0.6496 C   0  0  0  0  0  0  0  0  0  0  0  0
    5.9439   -0.1492   -0.1441 C   0  0  0  0  0  0  0  0  0  0  0  0
    4.6328   -0.2960    0.5402 C   0  0  0  0  0  0  0  0  0  0  0  0
    6.9524   -1.0883    0.0721 C   0  0  0  0  0  0  0  0  0  0  0  0
    6.1659    0.9274   -1.0028 C   0  0  0  0  0  0  0  0  0  0  0  0
    8.1830   -0.9506   -0.5701 C   0  0  0  0  0  0  0  0  0  0  0  0
    7.3964    1.0648   -1.6452 C   0  0  0  0  0  0  0  0  0  0  0  0
    8.4049    0.1258   -1.4287 C   0  0  0  0  0  0  0  0  0  0  0  0
   -4.8420    3.2140   -1.6572 H   0  0  0  0  0  0  0  0  0  0  0  0
   -5.9175    2.1057   -2.4570 H   0  0  0  0  0  0  0  0  0  0  0  0
   -2.7694    3.1995   -0.4794 H   0  0  0  0  0  0  0  0  0  0  0  0
   -4.1342    3.3754    0.6544 H   0  0  0  0  0  0  0  0  0  0  0  0
   -2.6169    2.7465    1.2145 H   0  0  0  0  0  0  0  0  0  0  0  0
   -2.1674   -2.1858    1.2753 H   0  0  0  0  0  0  0  0  0  0  0  0
   -5.9872   -2.4667   -1.8603 H   0  0  0  0  0  0  0  0  0  0  0  0
   -6.3723    3.1283    0.4028 H   0  0  0  0  0  0  0  0  0  0  0  0
   -7.1937    3.6923   -1.0614 H   0  0  0  0  0  0  0  0  0  0  0  0
   -7.4339    2.0335   -0.4892 H   0  0  0  0  0  0  0  0  0  0  0  0
   -3.0171   -4.3685    0.5722 H   0  0  0  0  0  0  0  0  0  0  0  0
   -4.9305   -4.5137   -0.9986 H   0  0  0  0  0  0  0  0  0  0  0  0
    0.4312   -0.2430    2.2123 H   0  0  0  0  0  0  0  0  0  0  0  0
    0.2754    1.5422    2.0889 H   0  0  0  0  0  0  0  0  0  0  0  0
    2.7355    0.9022    2.4106 H   0  0  0  0  0  0  0  0  0  0  0  0
    4.2707    1.8072    0.5303 H   0  0  0  0  0  0  0  0  0  0  0  0
    6.8003   -1.9315    0.7406 H   0  0  0  0  0  0  0  0  0  0  0  0
    5.3980    1.6640   -1.2197 H   0  0  0  0  0  0  0  0  0  0  0  0
    8.9686   -1.6813   -0.4013 H   0  0  0  0  0  0  0  0  0  0  0  0
    7.5676    1.8993   -2.3189 H   0  0  0  0  0  0  0  0  0  0  0  0
    9.3625    0.2321   -1.9300 H   0  0  0  0  0  0  0  0  0  0  0  0
  1 17  1  0  0  0  0
  1 21  1  0  0  0  0
  2 17  2  0  0  0  0
  3 22  2  0  0  0  0
  4 24  2  0  0  0  0
  5 10  2  0  0  0  0
  5 12  1  0  0  0  0
  6  7  1  0  0  0  0
  6 22  1  0  0  0  0
  6 44  1  0  0  0  0
  7 24  1  0  0  0  0
  7 45  1  0  0  0  0
  8  9  2  0  0  0  0
  8 10  1  0  0  0  0
  8 14  1  0  0  0  0
  9 11  1  0  0  0  0
  9 17  1  0  0  0  0
 10 13  1  0  0  0  0
 11 12  1  0  0  0  0
 11 15  2  0  0  0  0
 12 16  2  0  0  0  0
 13 18  1  0  0  0  0
 13 30  1  0  0  0  0
 13 31  1  0  0  0  0
 14 32  1  0  0  0  0
 14 33  1  0  0  0  0
 14 34  1  0  0  0  0
 15 19  1  0  0  0  0
 15 35  1  0  0  0  0
 16 20  1  0  0  0  0
 16 36  1  0  0  0  0
 18 37  1  0  0  0  0
 18 38  1  0  0  0  0
 18 39  1  0  0  0  0
 19 20  2  0  0  0  0
 19 40  1  0  0  0  0
 20 41  1  0  0  0  0
 21 22  1  0  0  0  0
 21 42  1  0  0  0  0
 21 43  1  0  0  0  0
 23 24  1  0  0  0  0
 23 25  2  0  0  0  0
 23 26  1  0  0  0  0
 25 27  1  0  0  0  0
 25 46  1  0  0  0  0
 26 28  2  0  0  0  0
 26 47  1  0  0  0  0
 27 29  2  0  0  0  0
 27 48  1  0  0  0  0
 28 29  1  0  0  0  0
 28 49  1  0  0  0  0
 29 50  1  0  0  0  0
M  END
> <PUBCHEM_COMPOUND_CID>
7847064

> <PUBCHEM_CONFORMER_RMSD>
1

> <PUBCHEM_CONFORMER_DIVERSEORDER>
1
75
42
21
74
86
103
99
46
27
94
72
53
76
40
56
69
17
91
92
15
97
90
65
54
62
35
28
84
58
29
67
93
12
41
32
51
24
63
50
36
101
33
5
45
80
44
95
68
82
61
2
85
30
78
55
22
98
96
37
39
71
18
81
11
9
16
70
8
79
52
83
87
38
43
13
4
14
7
100
19
89
66
60
57
10
34
23
3
64
102
6
104
25
31
59
49
88
77
73
20
48
26
47

> <PUBCHEM_MMFF94_PARTIAL_CHARGES>
38
1 -0.43
10 0.17
12 0.31
13 0.14
14 0.14
15 -0.15
16 -0.15
17 0.63
19 -0.15
2 -0.57
20 -0.15
21 0.34
22 0.57
23 0.09
24 0.54
25 -0.15
26 -0.15
27 -0.15
28 -0.15
29 -0.15
3 -0.57
35 0.15
36 0.15
4 -0.57
40 0.15
41 0.15
44 0.37
45 0.37
46 0.15
47 0.15
48 0.15
49 0.15
5 -0.62
50 0.15
6 -0.43
7 -0.43
8 -0.14
9 0.09

> <PUBCHEM_EFFECTIVE_ROTOR_COUNT>
9

> <PUBCHEM_PHARMACOPHORE_FEATURES>
10
1 18 hydrophobe
1 2 acceptor
1 3 acceptor
1 4 acceptor
1 5 acceptor
1 6 donor
1 7 donor
6 11 12 15 16 19 20 rings
6 23 25 26 27 28 29 rings
6 5 8 9 10 11 12 rings

> <PUBCHEM_HEAVY_ATOM_COUNT>
29

> <PUBCHEM_ATOM_DEF_STEREO_COUNT>
0

> <PUBCHEM_ATOM_UDEF_STEREO_COUNT>
0

> <PUBCHEM_BOND_DEF_STEREO_COUNT>
0

> <PUBCHEM_BOND_UDEF_STEREO_COUNT>
0

> <PUBCHEM_ISOTOPIC_ATOM_COUNT>
0

> <PUBCHEM_COMPONENT_COUNT>
1

> <PUBCHEM_CACTVS_TAUTO_COUNT>
8

> <PUBCHEM_CONFORMER_ID>
0077BC9800000001

> <PUBCHEM_MMFF94_ENERGY>
84.7821

> <PUBCHEM_FEATURE_SELFOVERLAP>
52.314

> <PUBCHEM_SHAPE_FINGERPRINT>
10 15 10663818585536804080
10165383 225 18335985372547716313
10369192 42 15338833205464896593
10391435 84 17895204285875150234
10554248 39 16271659944597215482
10674148 151 16805611408554940865
11007060 377 18269832035074429922
11135926 11 17895468228004307934
11200772 48 18343021103427924907
11315181 36 17748827414448261424
117089 54 17692530014521706219
12082328 90 17704068495078388770
12895837 130 17988921189158998733
13668630 136 16877667868019765244
13690498 29 18338516335559004043
13757389 114 18340212977265611253
13761468 95 17630058284892108165
13782708 43 15936681658421290844
14251764 18 5328456008883622296
14950920 106 7420935478769083538
15064981 113 18194703667736202525
15064986 266 18340765945535162067
15183329 4 17847066575736481530
15230672 131 18339650047774364682
15276724 80 17131277990246143804
15419008 91 18115047241960885032
16992828 155 17559399273702893317
17780758 139 7637399627512216753
18643901 69 18261673671850233399
18927931 339 16805598166326377697
20505436 4 17774727575625800345
21307412 95 18117855304901852631
21756936 100 17131829894007889993
22393880 68 18337965523019313075
23081809 10 17632584846859025416
23559900 14 18187941538123741313
25025965 108 16081939307418504550
25269216 80 18131351865492201475
3383291 50 16732704926604359150
3610482 184 17917706928865518325
392239 28 7781511572835127255
4107672 100 18342740719551859125
4169191 19 16199291098621780324
484985 159 17604141542079968811
50009960 94 16881020425793222982
5265222 85 18339080389102703515
531348 171 18341332279136777226
6201460 15 16087583860434074863

> <PUBCHEM_SHAPE_MULTIPOLES>
558.39
24.04
3.18
1.58
49.83
1.78
-0.34
-1.14
12.7
-8.61
0.77
0.03
-0.37
-0.43

> <PUBCHEM_SHAPE_SELFOVERLAP>
1207.629

> <PUBCHEM_SHAPE_VOLUME>
305.4

> <PUBCHEM_COORDINATE_TYPE>
2
5
10

$$$$

