582950
  -OEChem-06241222443D

 31 33  0     0  0  0  0  0  0999 V2000
    6.7780    0.6219   -0.7680 F   0  0  0  0  0  0  0  0  0  0  0  0
    1.6765   -0.7523    0.7262 O   0  0  0  0  0  0  0  0  0  0  0  0
   -0.7161   -1.7425    0.3135 O   0  0  0  0  0  0  0  0  0  0  0  0
   -1.7617    0.2735    0.1807 N   0  0  0  0  0  0  0  0  0  0  0  0
   -3.0372    2.1160    0.0118 N   0  0  0  0  0  0  0  0  0  0  0  0
   -3.0675   -0.1616   -0.0241 C   0  0  0  0  0  0  0  0  0  0  0  0
   -3.8250    1.0060   -0.1238 C   0  0  0  0  0  0  0  0  0  0  0  0
   -0.6185   -0.5242    0.3435 C   0  0  0  0  0  0  0  0  0  0  0  0
   -1.8231    1.6523    0.1905 C   0  0  0  0  0  0  0  0  0  0  0  0
   -3.6553   -1.4309   -0.1309 C   0  0  0  0  0  0  0  0  0  0  0  0
    0.6685    0.2167    0.5496 C   0  0  0  0  0  0  0  0  0  0  0  0
   -5.2128    0.9242   -0.3369 C   0  0  0  0  0  0  0  0  0  0  0  0
   -5.0372   -1.4945   -0.3425 C   0  0  0  0  0  0  0  0  0  0  0  0
   -5.8055   -0.3370   -0.4442 C   0  0  0  0  0  0  0  0  0  0  0  0
    2.9549   -0.4072    0.3521 C   0  0  0  0  0  0  0  0  0  0  0  0
    3.3546    0.9193    0.4283 C   0  0  0  0  0  0  0  0  0  0  0  0
    3.8237   -1.3921   -0.0956 C   0  0  0  0  0  0  0  0  0  0  0  0
    4.6507    1.2683    0.0485 C   0  0  0  0  0  0  0  0  0  0  0  0
    5.1198   -1.0430   -0.4753 C   0  0  0  0  0  0  0  0  0  0  0  0
    5.5333    0.2871   -0.4032 C   0  0  0  0  0  0  0  0  0  0  0  0
   -0.9511    2.2761    0.3318 H   0  0  0  0  0  0  0  0  0  0  0  0
   -3.0772   -2.3446   -0.0552 H   0  0  0  0  0  0  0  0  0  0  0  0
    0.8453    0.8259   -0.3456 H   0  0  0  0  0  0  0  0  0  0  0  0
    0.5986    0.8311    1.4533 H   0  0  0  0  0  0  0  0  0  0  0  0
   -5.8173    1.8223   -0.4170 H   0  0  0  0  0  0  0  0  0  0  0  0
   -5.5183   -2.4656   -0.4290 H   0  0  0  0  0  0  0  0  0  0  0  0
   -6.8769   -0.4140   -0.6087 H   0  0  0  0  0  0  0  0  0  0  0  0
    2.7052    1.7067    0.7978 H   0  0  0  0  0  0  0  0  0  0  0  0
    3.5046   -2.4286   -0.1532 H   0  0  0  0  0  0  0  0  0  0  0  0
    4.9752    2.3029    0.1094 H   0  0  0  0  0  0  0  0  0  0  0  0
    5.8071   -1.8067   -0.8271 H   0  0  0  0  0  0  0  0  0  0  0  0
  1 20  1  0  0  0  0
  2 11  1  0  0  0  0
  2 15  1  0  0  0  0
  3  8  2  0  0  0  0
  4  6  1  0  0  0  0
  4  8  1  0  0  0  0
  4  9  1  0  0  0  0
  5  7  1  0  0  0  0
  5  9  2  0  0  0  0
  6  7  1  0  0  0  0
  6 10  2  0  0  0  0
  7 12  2  0  0  0  0
  8 11  1  0  0  0  0
  9 21  1  0  0  0  0
 10 13  1  0  0  0  0
 10 22  1  0  0  0  0
 11 23  1  0  0  0  0
 11 24  1  0  0  0  0
 12 14  1  0  0  0  0
 12 25  1  0  0  0  0
 13 14  2  0  0  0  0
 13 26  1  0  0  0  0
 14 27  1  0  0  0  0
 15 16  2  0  0  0  0
 15 17  1  0  0  0  0
 16 18  1  0  0  0  0
 16 28  1  0  0  0  0
 17 19  2  0  0  0  0
 17 29  1  0  0  0  0
 18 20  2  0  0  0  0
 18 30  1  0  0  0  0
 19 20  1  0  0  0  0
 19 31  1  0  0  0  0
M  END
> <PUBCHEM_COMPOUND_CID>
582950

> <PUBCHEM_CONFORMER_RMSD>
0.6

> <PUBCHEM_CONFORMER_DIVERSEORDER>
1
91
77
67
7
105
111
103
95
44
21
53
47
92
3
99
86
16
104
41
112
70
125
74
32
8
42
93
59
71
20
66
48
18
13
126
121
26
55
115
122
90
79
109
108
52
64
2
50
94
61
45
113
57
4
27
123
12
14
15
23
117
78
101
76
54
58
11
100
69
40
118
85
73
43
63
116
51
68
89
106
83
31
119
60
56
102
33
82
96
49
124
88
87
84
38
98
24
81
75
28
80
36
17
97
34
62
46
39
30
120
29
35
10
107
65
19
22
6
72
37
110
25
114
9
5

> <PUBCHEM_MMFF94_PARTIAL_CHARGES>
29
1 -0.19
10 -0.15
11 0.34
12 -0.15
13 -0.15
14 -0.15
15 0.08
16 -0.15
17 -0.15
18 -0.15
19 -0.15
2 -0.36
20 0.19
21 0.15
22 0.15
25 0.15
26 0.15
27 0.15
28 0.15
29 0.15
3 -0.57
30 0.15
31 0.15
4 0.29
5 -0.57
6 -0.15
7 0.23
8 0.52
9 0.04

> <PUBCHEM_EFFECTIVE_ROTOR_COUNT>
4

> <PUBCHEM_PHARMACOPHORE_FEATURES>
5
1 2 acceptor
1 3 acceptor
5 4 5 6 7 9 rings
6 15 16 17 18 19 20 rings
6 6 7 10 12 13 14 rings

> <PUBCHEM_HEAVY_ATOM_COUNT>
20

> <PUBCHEM_ATOM_DEF_STEREO_COUNT>
0

> <PUBCHEM_ATOM_UDEF_STEREO_COUNT>
0

> <PUBCHEM_BOND_DEF_STEREO_COUNT>
0

> <PUBCHEM_BOND_UDEF_STEREO_COUNT>
0

> <PUBCHEM_ISOTOPIC_ATOM_COUNT>
0

> <PUBCHEM_COMPONENT_COUNT>
1

> <PUBCHEM_CACTVS_TAUTO_COUNT>
1

> <PUBCHEM_CONFORMER_ID>
0008E52600000001

> <PUBCHEM_MMFF94_ENERGY>
52.1507

> <PUBCHEM_FEATURE_SELFOVERLAP>
25.486

> <PUBCHEM_SHAPE_FINGERPRINT>
10 15 11167935819999100246
10595046 47 18411700997760849986
10730089 173 18410575080373386396
10968037 39 18413390926148483271
11089746 13 13758072965836044142
11315181 36 17967811639404677009
11524674 6 15791732980101593079
11719270 70 18260270781197756950
117890 112 12679187123840470215
12107183 9 17619633922111259266
12236239 1 17989490735738840819
12916748 109 18342174479273726338
13167823 11 18408889563561140710
13288520 33 18260830384922430133
13533116 47 17060070288747429082
13631057 29 16557897906758174971
13668630 136 16660638545046908334
14251718 22 18410573981167746246
14251764 18 17988929968783892354
14528608 73 18343022185759397278
15183329 4 18338793516116849874
15196674 1 18410294726383237536
15348495 7 11239703159587910772
15788980 27 14490191626406822672
17834072 33 18410576184475426086
17844677 252 18260261949647432272
18335252 98 18341325609205989051
200 152 17530685420030981211
20300324 65 18409166627864641537
20645477 70 18187641462229253102
21267235 1 18337953395034040387
221357 26 18261112976158530480
2297311 6 18187080650905352617
23035841 295 18408324393584101867
23402539 116 18410016524461704991
23557571 272 18187641427136064125
23559900 14 18335709303589548841
26918003 58 10519985959111799142
300161 21 17346885558657878515
3004659 81 18340204193978174242
335352 9 18409172104823585525
34797466 226 17967525749518272508
351380 3 5112009422098186636
3545911 37 18411981356125185008
4073 2 18059850632912032258
4214541 1 18408604794207162649
4325135 7 18411418401512786861
474 4 17489583433770572676
497634 4 18334856151766146357
5104073 3 18409732884536667234
53794403 172 17914609467504267700
542803 24 17703791422522004554
7062679 117 18411981343319540775
7495541 125 17676493817506554200
77779 3 18409167740081680128

> <PUBCHEM_SHAPE_MULTIPOLES>
382.62
15.77
1.74
0.73
8.82
0.12
-0.01
0.09
-3.94
-0.91
-0.01
0.24
-0.02
-0.04

> <PUBCHEM_SHAPE_SELFOVERLAP>
844.149

> <PUBCHEM_SHAPE_VOLUME>
207.6

> <PUBCHEM_COORDINATE_TYPE>
2
5
10

$$$$

