6674
  -OEChem-06261201263D

 63 66  0     1  0  0  0  0  0999 V2000
   -1.0008    2.4037    0.0229 O   0  0  0  0  0  0  0  0  0  0  0  0
    1.5496   -3.0025    0.4810 O   0  0  0  0  0  0  0  0  0  0  0  0
    5.7197    0.6314    2.8257 O   0  0  0  0  0  0  0  0  0  0  0  0
   -6.3399    0.0447    2.9127 O   0  0  0  0  0  0  0  0  0  0  0  0
   -7.1581   -0.7204    0.9375 O   0  0  0  0  0  0  0  0  0  0  0  0
   -0.2045   -0.9377   -0.3795 C   0  0  2  0  0  0  0  0  0  0  0  0
   -0.9958    0.2236   -1.0244 C   0  0  1  0  0  0  0  0  0  0  0  0
    1.2735   -0.9460   -0.7886 C   0  0  1  0  0  0  0  0  0  0  0  0
    1.9365    0.3880   -0.3135 C   0  0  1  0  0  0  0  0  0  0  0  0
    3.4699    0.4478   -0.6742 C   0  0  2  0  0  0  0  0  0  0  0  0
   -2.4050   -0.0906   -0.4759 C   0  0  2  0  0  0  0  0  0  0  0  0
   -1.0708   -2.1543   -0.6999 C   0  0  0  0  0  0  0  0  0  0  0  0
    4.2001   -0.8002   -0.0682 C   0  0  2  0  0  0  0  0  0  0  0  0
    1.1425    1.6380   -0.7545 C   0  0  0  0  0  0  0  0  0  0  0  0
   -2.5119   -1.6267   -0.6020 C   0  0  0  0  0  0  0  0  0  0  0  0
   -0.3533    1.5001   -0.5023 C   0  0  0  0  0  0  0  0  0  0  0  0
    2.0628   -2.1024   -0.1800 C   0  0  0  0  0  0  0  0  0  0  0  0
    3.5437   -2.1207   -0.4886 C   0  0  0  0  0  0  0  0  0  0  0  0
    4.1656    1.7281   -0.1261 C   0  0  0  0  0  0  0  0  0  0  0  0
   -3.5729    0.6259   -1.1425 C   0  0  1  0  0  0  0  0  0  0  0  0
   -0.9715    0.2611   -2.5659 C   0  0  0  0  0  0  0  0  0  0  0  0
    3.6816    0.4695   -2.2107 C   0  0  0  0  0  0  0  0  0  0  0  0
    4.3109   -0.7502    1.4682 C   0  0  0  0  0  0  0  0  0  0  0  0
    4.2111    1.8116    1.3913 C   0  0  0  0  0  0  0  0  0  0  0  0
    4.8597    0.5710    1.9481 C   0  0  0  0  0  0  0  0  0  0  0  0
   -4.9045    0.1610   -0.5196 C   0  0  0  0  0  0  0  0  0  0  0  0
   -3.3855    2.1424   -1.0370 C   0  0  0  0  0  0  0  0  0  0  0  0
   -4.9817    0.3711    0.9939 C   0  0  0  0  0  0  0  0  0  0  0  0
   -6.2710   -0.1673    1.5723 C   0  0  0  0  0  0  0  0  0  0  0  0
   -0.2277   -0.8204    0.7173 H   0  0  0  0  0  0  0  0  0  0  0  0
    1.3464   -1.0668   -1.8734 H   0  0  0  0  0  0  0  0  0  0  0  0
    1.8618    0.3789    0.7835 H   0  0  0  0  0  0  0  0  0  0  0  0
   -2.3822    0.1652    0.5917 H   0  0  0  0  0  0  0  0  0  0  0  0
   -0.9157   -2.9789    0.0017 H   0  0  0  0  0  0  0  0  0  0  0  0
   -0.8686   -2.5341   -1.7078 H   0  0  0  0  0  0  0  0  0  0  0  0
    5.2298   -0.8086   -0.4548 H   0  0  0  0  0  0  0  0  0  0  0  0
    1.2794    1.8563   -1.8170 H   0  0  0  0  0  0  0  0  0  0  0  0
    1.4834    2.5144   -0.1927 H   0  0  0  0  0  0  0  0  0  0  0  0
   -3.0687   -1.9370   -1.4934 H   0  0  0  0  0  0  0  0  0  0  0  0
   -3.0205   -2.0517    0.2704 H   0  0  0  0  0  0  0  0  0  0  0  0
    4.0064   -2.9652    0.0350 H   0  0  0  0  0  0  0  0  0  0  0  0
    3.6653   -2.3064   -1.5607 H   0  0  0  0  0  0  0  0  0  0  0  0
    3.6932    2.6325   -0.5257 H   0  0  0  0  0  0  0  0  0  0  0  0
    5.2014    1.7498   -0.4946 H   0  0  0  0  0  0  0  0  0  0  0  0
   -3.6226    0.3697   -2.2082 H   0  0  0  0  0  0  0  0  0  0  0  0
    0.0461    0.2844   -2.9671 H   0  0  0  0  0  0  0  0  0  0  0  0
   -1.4667   -0.6082   -3.0102 H   0  0  0  0  0  0  0  0  0  0  0  0
   -1.4613    1.1563   -2.9606 H   0  0  0  0  0  0  0  0  0  0  0  0
    4.7497    0.4322   -2.4564 H   0  0  0  0  0  0  0  0  0  0  0  0
    3.2105   -0.3743   -2.7201 H   0  0  0  0  0  0  0  0  0  0  0  0
    3.2857    1.3868   -2.6583 H   0  0  0  0  0  0  0  0  0  0  0  0
    4.9829   -1.5456    1.8121 H   0  0  0  0  0  0  0  0  0  0  0  0
    3.3449   -0.9049    1.9601 H   0  0  0  0  0  0  0  0  0  0  0  0
    3.2135    1.9153    1.8279 H   0  0  0  0  0  0  0  0  0  0  0  0
    4.8007    2.6841    1.6932 H   0  0  0  0  0  0  0  0  0  0  0  0
   -5.7305    0.7036   -0.9985 H   0  0  0  0  0  0  0  0  0  0  0  0
   -5.0806   -0.8959   -0.7545 H   0  0  0  0  0  0  0  0  0  0  0  0
   -3.2796    2.4822   -0.0037 H   0  0  0  0  0  0  0  0  0  0  0  0
   -2.5817    2.5230   -1.6685 H   0  0  0  0  0  0  0  0  0  0  0  0
   -4.2904    2.6353   -1.4162 H   0  0  0  0  0  0  0  0  0  0  0  0
   -4.1821   -0.1595    1.5166 H   0  0  0  0  0  0  0  0  0  0  0  0
   -4.9289    1.4374    1.2351 H   0  0  0  0  0  0  0  0  0  0  0  0
   -7.1756   -0.2992    3.2944 H   0  0  0  0  0  0  0  0  0  0  0  0
  1 16  2  0  0  0  0
  2 17  2  0  0  0  0
  3 25  2  0  0  0  0
  4 29  1  0  0  0  0
  4 63  1  0  0  0  0
  5 29  2  0  0  0  0
  6  7  1  0  0  0  0
  6  8  1  0  0  0  0
  6 12  1  0  0  0  0
  6 30  1  0  0  0  0
  7 11  1  0  0  0  0
  7 16  1  0  0  0  0
  7 21  1  0  0  0  0
  8  9  1  0  0  0  0
  8 17  1  0  0  0  0
  8 31  1  0  0  0  0
  9 10  1  0  0  0  0
  9 14  1  0  0  0  0
  9 32  1  0  0  0  0
 10 13  1  0  0  0  0
 10 19  1  0  0  0  0
 10 22  1  0  0  0  0
 11 15  1  0  0  0  0
 11 20  1  0  0  0  0
 11 33  1  0  0  0  0
 12 15  1  0  0  0  0
 12 34  1  0  0  0  0
 12 35  1  0  0  0  0
 13 18  1  0  0  0  0
 13 23  1  0  0  0  0
 13 36  1  0  0  0  0
 14 16  1  0  0  0  0
 14 37  1  0  0  0  0
 14 38  1  0  0  0  0
 15 39  1  0  0  0  0
 15 40  1  0  0  0  0
 17 18  1  0  0  0  0
 18 41  1  0  0  0  0
 18 42  1  0  0  0  0
 19 24  1  0  0  0  0
 19 43  1  0  0  0  0
 19 44  1  0  0  0  0
 20 26  1  0  0  0  0
 20 27  1  0  0  0  0
 20 45  1  0  0  0  0
 21 46  1  0  0  0  0
 21 47  1  0  0  0  0
 21 48  1  0  0  0  0
 22 49  1  0  0  0  0
 22 50  1  0  0  0  0
 22 51  1  0  0  0  0
 23 25  1  0  0  0  0
 23 52  1  0  0  0  0
 23 53  1  0  0  0  0
 24 25  1  0  0  0  0
 24 54  1  0  0  0  0
 24 55  1  0  0  0  0
 26 28  1  0  0  0  0
 26 56  1  0  0  0  0
 26 57  1  0  0  0  0
 27 58  1  0  0  0  0
 27 59  1  0  0  0  0
 27 60  1  0  0  0  0
 28 29  1  0  0  0  0
 28 61  1  0  0  0  0
 28 62  1  0  0  0  0
M  END
> <PUBCHEM_COMPOUND_CID>
6674

> <PUBCHEM_CONFORMER_RMSD>
0.8

> <PUBCHEM_CONFORMER_DIVERSEORDER>
6
5
12
3
10
1
9
13
7
11
4
2
8

> <PUBCHEM_MMFF94_PARTIAL_CHARGES>
17
1 -0.57
14 0.06
16 0.45
17 0.45
18 0.06
2 -0.57
23 0.06
24 0.06
25 0.45
28 0.06
29 0.66
3 -0.57
4 -0.65
5 -0.57
63 0.5
7 0.06
8 0.06

> <PUBCHEM_EFFECTIVE_ROTOR_COUNT>
5.6

> <PUBCHEM_PHARMACOPHORE_FEATURES>
11
1 1 acceptor
1 2 acceptor
1 27 hydrophobe
1 3 acceptor
1 4 acceptor
1 5 acceptor
3 4 5 29 anion
5 6 7 11 12 15 rings
6 10 13 19 23 24 25 rings
6 6 7 8 9 14 16 rings
6 8 9 10 13 17 18 rings

> <PUBCHEM_HEAVY_ATOM_COUNT>
29

> <PUBCHEM_ATOM_DEF_STEREO_COUNT>
8

> <PUBCHEM_ATOM_UDEF_STEREO_COUNT>
0

> <PUBCHEM_BOND_DEF_STEREO_COUNT>
0

> <PUBCHEM_BOND_UDEF_STEREO_COUNT>
0

> <PUBCHEM_ISOTOPIC_ATOM_COUNT>
0

> <PUBCHEM_COMPONENT_COUNT>
1

> <PUBCHEM_CACTVS_TAUTO_COUNT>
18

> <PUBCHEM_CONFORMER_ID>
00001A1200000006

> <PUBCHEM_MMFF94_ENERGY>
94.1346

> <PUBCHEM_FEATURE_SELFOVERLAP>
56.01

> <PUBCHEM_SHAPE_FINGERPRINT>
10 15 18272655614624500385
10554248 39 13912879921256364277
10693767 8 11167954536475552961
11135609 99 15769776840969828522
11796584 16 15697454337084939035
12035758 1 18411141312103886825
12236239 1 17603300462881231357
12422481 6 18200606881140754550
12553582 1 18412265029967136636
12596602 18 17603583024289950515
12633257 1 18341615862963464167
12892183 10 18339922727184924309
12925494 130 18049445035266241025
13140716 1 18194410995705838988
13224815 77 18188224125823496214
13540713 4 18124040280053608708
13782708 43 16845571994402878283
14178342 30 18339376162479035198
15163728 17 15140949673987133067
15188451 53 16487260958867672995
15238133 3 14346087442422690550
15475509 35 16630813192094124408
15840311 113 17167852098294278833
17349148 13 17775565364008572220
1813 80 16773792606454746277
18222031 100 11527952261454173710
18608769 82 18342166748644362574
18785283 64 18129094529049109349
19377110 9 18187089425660850879
1979834 28 18410288125082079982
20775438 99 11886806365217700481
21033648 29 18341055211408617245
21267235 1 18341040921762409838
21623969 137 18273492373391144627
21637258 2 15985108496582926211
21792934 111 18338524152847693641
22149856 69 18339063970344278809
22182313 1 18198920290570302646
23559900 14 18261109665360906652
23569914 2 15071470567718013241
25222932 49 16199293288363971578
2838139 119 4895275833483497601
29717793 49 12175623966899781579
350125 39 18339363075950807806
3680242 22 18409457977023809544
392239 28 18335434442872705169
4093350 32 16588297293930355356
4340502 62 18335139786810434243
465052 167 17060337409584732968
5104073 3 18268152139936128329
633830 44 16443065027741930821
8988823 20 14548729565261083774

> <PUBCHEM_SHAPE_MULTIPOLES>
567.46
13.76
2.33
2.14
15.05
0.6
0.93
-1.42
10.75
-1.3
-0.18
-0.05
-0.46
0.91

> <PUBCHEM_SHAPE_SELFOVERLAP>
1207.964

> <PUBCHEM_SHAPE_VOLUME>
312.6

> <PUBCHEM_COORDINATE_TYPE>
2
5
10

$$$$

