6962
  -OEChem-06261201382D

 22 22  0     0  0  0  0  0  0999 V2000
    6.8671   -1.5000    0.0000 S   0  0  0  0  0  0  0  0  0  0  0  0
    7.7331   -2.0000    0.0000 O   0  0  0  0  0  0  0  0  0  0  0  0
    6.3671   -2.3660    0.0000 O   0  0  0  0  0  0  0  0  0  0  0  0
    7.3671   -0.6340    0.0000 O   0  0  0  0  0  0  0  0  0  0  0  0
    6.0010    2.0000    0.0000 O   0  0  0  0  0  0  0  0  0  0  0  0
    2.5369    0.0000    0.0000 O   0  0  0  0  0  0  0  0  0  0  0  0
    4.2690    2.0000    0.0000 O   0  0  0  0  0  0  0  0  0  0  0  0
    3.4030    1.5000    0.0000 O   0  0  0  0  0  0  0  0  0  0  0  0
    6.0010   -1.0000    0.0000 C   0  0  0  0  0  0  0  0  0  0  0  0
    5.1350    0.5000    0.0000 C   0  0  0  0  0  0  0  0  0  0  0  0
    6.0010    0.0000    0.0000 C   0  0  0  0  0  0  0  0  0  0  0  0
    4.2690    0.0000    0.0000 C   0  0  0  0  0  0  0  0  0  0  0  0
    5.1350   -1.5000    0.0000 C   0  0  0  0  0  0  0  0  0  0  0  0
    4.2690   -1.0000    0.0000 C   0  0  0  0  0  0  0  0  0  0  0  0
    5.1350    1.5000    0.0000 C   0  0  0  0  0  0  0  0  0  0  0  0
    3.4030    0.5000    0.0000 C   0  0  0  0  0  0  0  0  0  0  0  0
    6.5380    0.3100    0.0000 H   0  0  0  0  0  0  0  0  0  0  0  0
    5.1350   -2.1200    0.0000 H   0  0  0  0  0  0  0  0  0  0  0  0
    3.7320   -1.3100    0.0000 H   0  0  0  0  0  0  0  0  0  0  0  0
    7.7331   -2.6200    0.0000 H   0  0  0  0  0  0  0  0  0  0  0  0
    6.0010    2.6200    0.0000 H   0  0  0  0  0  0  0  0  0  0  0  0
    2.0000    0.3100    0.0000 H   0  0  0  0  0  0  0  0  0  0  0  0
  1  2  1  0  0  0  0
  1  3  2  0  0  0  0
  1  4  2  0  0  0  0
  1  9  1  0  0  0  0
  2 20  1  0  0  0  0
  5 15  1  0  0  0  0
  5 21  1  0  0  0  0
  6 16  1  0  0  0  0
  6 22  1  0  0  0  0
  7 15  2  0  0  0  0
  8 16  2  0  0  0  0
  9 11  2  0  0  0  0
  9 13  1  0  0  0  0
 10 11  1  0  0  0  0
 10 12  2  0  0  0  0
 10 15  1  0  0  0  0
 11 17  1  0  0  0  0
 12 14  1  0  0  0  0
 12 16  1  0  0  0  0
 13 14  2  0  0  0  0
 13 18  1  0  0  0  0
 14 19  1  0  0  0  0
M  END
> <PUBCHEM_COMPOUND_CID>
6962

> <PUBCHEM_COMPOUND_CANONICALIZED>
1

> <PUBCHEM_CACTVS_COMPLEXITY>
393

> <PUBCHEM_CACTVS_HBOND_ACCEPTOR>
7

> <PUBCHEM_CACTVS_HBOND_DONOR>
3

> <PUBCHEM_CACTVS_ROTATABLE_BOND>
3

> <PUBCHEM_CACTVS_SUBSKEYS>
AAADcYBwOABAAAAAAAAAAAAAAAAAAAAAAAAwAAAAAAAAAAABAAAAGgQACAAADACA2AAwCYAAAoKIAiDSCHBCAEAkAAAIiBkACMgIJjKAFRCAcQAkwAEImYfLyKCOkAAAgAAQAAAgAAEAACAAAAAAAAAAAA==

> <PUBCHEM_IUPAC_OPENEYE_NAME>
4-sulfophthalic acid

> <PUBCHEM_IUPAC_CAS_NAME>
4-sulfophthalic acid

> <PUBCHEM_IUPAC_NAME>
4-sulfophthalic acid

> <PUBCHEM_IUPAC_SYSTEMATIC_NAME>
4-sulfophthalic acid

> <PUBCHEM_IUPAC_TRADITIONAL_NAME>
4-sulfophthalic acid

> <PUBCHEM_IUPAC_INCHI>
InChI=1S/C8H6O7S/c9-7(10)5-2-1-4(16(13,14)15)3-6(5)8(11)12/h1-3H,(H,9,10)(H,11,12)(H,13,14,15)

> <PUBCHEM_IUPAC_INCHIKEY>
WNKQDGLSQUASME-UHFFFAOYSA-N

> <PUBCHEM_XLOGP3_AA>
-0.3

> <PUBCHEM_EXACT_MASS>
245.983424

> <PUBCHEM_MOLECULAR_FORMULA>
C8H6O7S

> <PUBCHEM_MOLECULAR_WEIGHT>
246.19404

> <PUBCHEM_OPENEYE_CAN_SMILES>
C1=CC(=C(C=C1S(=O)(=O)O)C(=O)O)C(=O)O

> <PUBCHEM_OPENEYE_ISO_SMILES>
C1=CC(=C(C=C1S(=O)(=O)O)C(=O)O)C(=O)O

> <PUBCHEM_CACTVS_TPSA>
137

> <PUBCHEM_MONOISOTOPIC_WEIGHT>
245.983424

> <PUBCHEM_TOTAL_CHARGE>
0

> <PUBCHEM_HEAVY_ATOM_COUNT>
16

> <PUBCHEM_ATOM_DEF_STEREO_COUNT>
0

> <PUBCHEM_ATOM_UDEF_STEREO_COUNT>
0

> <PUBCHEM_BOND_DEF_STEREO_COUNT>
0

> <PUBCHEM_BOND_UDEF_STEREO_COUNT>
0

> <PUBCHEM_ISOTOPIC_ATOM_COUNT>
0

> <PUBCHEM_COMPONENT_COUNT>
1

> <PUBCHEM_CACTVS_TAUTO_COUNT>
1

> <PUBCHEM_COORDINATE_TYPE>
1
5
255

> <PUBCHEM_BONDANNOTATIONS>
10  11  8
10  12  8
12  14  8
13  14  8
9  11  8
9  13  8

$$$$

