17395709
  -OEChem-06241222512D

 38 39  0     1  0  0  0  0  0999 V2000
    7.7418    0.4998    0.0000 S   0  0  0  0  0  0  0  0  0  0  0  0
    3.0827    0.9382    0.0000 S   0  0  0  0  0  0  0  0  0  0  0  0
    6.5662    2.1179    0.0000 O   0  0  0  0  0  0  0  0  0  0  0  0
    8.8296   -1.8480    0.0000 N   0  0  0  0  0  0  0  0  0  0  0  0
    9.3296   -0.3092    0.0000 N   0  0  0  0  0  0  0  0  0  0  0  0
    5.1650    1.0998    0.0000 N   0  0  0  0  0  0  0  0  0  0  0  0
    8.0206   -1.2603    0.0000 N   0  0  0  0  0  0  0  0  0  0  0  0
   10.5897   -1.5693    0.0000 C   0  0  0  0  0  0  0  0  0  0  0  0
    9.6386   -1.2603    0.0000 C   0  0  0  0  0  0  0  0  0  0  0  0
    6.7473    0.3953    0.0000 C   0  0  3  0  0  0  0  0  0  0  0  0
   11.3328   -0.9001    0.0000 C   0  0  0  0  0  0  0  0  0  0  0  0
   10.7976   -2.5474    0.0000 C   0  0  0  0  0  0  0  0  0  0  0  0
    6.1595    1.2043    0.0000 C   0  0  0  0  0  0  0  0  0  0  0  0
    8.3296   -0.3092    0.0000 C   0  0  0  0  0  0  0  0  0  0  0  0
    4.5772    1.9088    0.0000 C   0  0  0  0  0  0  0  0  0  0  0  0
    6.3406   -0.5183    0.0000 C   0  0  0  0  0  0  0  0  0  0  0  0
    3.5827    1.8043    0.0000 C   0  0  0  0  0  0  0  0  0  0  0  0
    2.9136    2.5474    0.0000 C   0  0  0  0  0  0  0  0  0  0  0  0
    2.0000    2.1407    0.0000 C   0  0  0  0  0  0  0  0  0  0  0  0
    2.1045    1.1462    0.0000 C   0  0  0  0  0  0  0  0  0  0  0  0
   10.4608   -0.9628    0.0000 H   0  0  0  0  0  0  0  0  0  0  0  0
    7.1117   -0.1063    0.0000 H   0  0  0  0  0  0  0  0  0  0  0  0
   10.1911   -2.6763    0.0000 H   0  0  0  0  0  0  0  0  0  0  0  0
   11.7477   -1.3609    0.0000 H   0  0  0  0  0  0  0  0  0  0  0  0
   11.7936   -0.4853    0.0000 H   0  0  0  0  0  0  0  0  0  0  0  0
   10.9180   -0.4394    0.0000 H   0  0  0  0  0  0  0  0  0  0  0  0
   10.9265   -3.1539    0.0000 H   0  0  0  0  0  0  0  0  0  0  0  0
   11.4040   -2.4185    0.0000 H   0  0  0  0  0  0  0  0  0  0  0  0
    8.8296   -2.4680    0.0000 H   0  0  0  0  0  0  0  0  0  0  0  0
    5.1344    2.1806    0.0000 H   0  0  0  0  0  0  0  0  0  0  0  0
    4.4063    2.5048    0.0000 H   0  0  0  0  0  0  0  0  0  0  0  0
    5.7742   -0.2661    0.0000 H   0  0  0  0  0  0  0  0  0  0  0  0
    6.0884   -1.0846    0.0000 H   0  0  0  0  0  0  0  0  0  0  0  0
    6.9070   -0.7704    0.0000 H   0  0  0  0  0  0  0  0  0  0  0  0
    4.9128    0.5334    0.0000 H   0  0  0  0  0  0  0  0  0  0  0  0
    3.0424    3.1539    0.0000 H   0  0  0  0  0  0  0  0  0  0  0  0
    1.4631    2.4507    0.0000 H   0  0  0  0  0  0  0  0  0  0  0  0
    1.6438    0.7313    0.0000 H   0  0  0  0  0  0  0  0  0  0  0  0
  1 10  1  0  0  0  0
  1 14  1  0  0  0  0
  2 17  1  0  0  0  0
  2 20  1  0  0  0  0
  3 13  2  0  0  0  0
  4  7  1  0  0  0  0
  4  9  1  0  0  0  0
  4 29  1  0  0  0  0
  5  9  2  0  0  0  0
  5 14  1  0  0  0  0
  6 13  1  0  0  0  0
  6 15  1  0  0  0  0
  6 35  1  0  0  0  0
  7 14  2  0  0  0  0
  8  9  1  0  0  0  0
  8 11  1  0  0  0  0
  8 12  1  0  0  0  0
  8 21  1  0  0  0  0
 10 13  1  0  0  0  0
 10 16  1  0  0  0  0
 10 22  1  0  0  0  0
 11 24  1  0  0  0  0
 11 25  1  0  0  0  0
 11 26  1  0  0  0  0
 12 23  1  0  0  0  0
 12 27  1  0  0  0  0
 12 28  1  0  0  0  0
 15 17  1  0  0  0  0
 15 30  1  0  0  0  0
 15 31  1  0  0  0  0
 16 32  1  0  0  0  0
 16 33  1  0  0  0  0
 16 34  1  0  0  0  0
 17 18  2  0  0  0  0
 18 19  1  0  0  0  0
 18 36  1  0  0  0  0
 19 20  2  0  0  0  0
 19 37  1  0  0  0  0
 20 38  1  0  0  0  0
M  END
> <PUBCHEM_COMPOUND_CID>
17395709

> <PUBCHEM_COMPOUND_CANONICALIZED>
1

> <PUBCHEM_CACTVS_COMPLEXITY>
330

> <PUBCHEM_CACTVS_HBOND_ACCEPTOR>
5

> <PUBCHEM_CACTVS_HBOND_DONOR>
2

> <PUBCHEM_CACTVS_ROTATABLE_BOND>
6

> <PUBCHEM_CACTVS_SUBSKEYS>
AAADceBzoABgAAAAAAAAAAAAAAAAAWJAAAAAAAAAAAAAAAAB4AAAHgQYAAAADQDF0wSzEYbrEAiuACNyNACT0IvgCLBdqJk4BIiIKCKgmRGEAAhgngKoiAYQAAAAAAAAAAAAAAAAAAAAAAAAAAAAAAAAAA==

> <PUBCHEM_IUPAC_OPENEYE_NAME>
2-[(5-isopropyl-1H-1,2,4-triazol-3-yl)sulfanyl]-N-(2-thienylmethyl)propanamide

> <PUBCHEM_IUPAC_CAS_NAME>
2-[(5-propan-2-yl-1H-1,2,4-triazol-3-yl)thio]-N-(thiophen-2-ylmethyl)propanamide

> <PUBCHEM_IUPAC_NAME>
2-[(5-propan-2-yl-1H-1,2,4-triazol-3-yl)sulfanyl]-N-(thiophen-2-ylmethyl)propanamide

> <PUBCHEM_IUPAC_SYSTEMATIC_NAME>
2-[(5-propan-2-yl-1H-1,2,4-triazol-3-yl)sulfanyl]-N-(thiophen-2-ylmethyl)propanamide

> <PUBCHEM_IUPAC_TRADITIONAL_NAME>
2-[(5-isopropyl-1H-1,2,4-triazol-3-yl)thio]-N-(2-thenyl)propionamide

> <PUBCHEM_IUPAC_INCHI>
InChI=1S/C13H18N4OS2/c1-8(2)11-15-13(17-16-11)20-9(3)12(18)14-7-10-5-4-6-19-10/h4-6,8-9H,7H2,1-3H3,(H,14,18)(H,15,16,17)

> <PUBCHEM_IUPAC_INCHIKEY>
WXSINAHJYWUCES-UHFFFAOYSA-N

> <PUBCHEM_XLOGP3_AA>
2.9

> <PUBCHEM_EXACT_MASS>
310.092203

> <PUBCHEM_MOLECULAR_FORMULA>
C13H18N4OS2

> <PUBCHEM_MOLECULAR_WEIGHT>
310.43822

> <PUBCHEM_OPENEYE_CAN_SMILES>
CC(C)C1=NC(=NN1)SC(C)C(=O)NCC2=CC=CS2

> <PUBCHEM_OPENEYE_ISO_SMILES>
CC(C)C1=NC(=NN1)SC(C)C(=O)NCC2=CC=CS2

> <PUBCHEM_CACTVS_TPSA>
124

> <PUBCHEM_MONOISOTOPIC_WEIGHT>
310.092203

> <PUBCHEM_TOTAL_CHARGE>
0

> <PUBCHEM_HEAVY_ATOM_COUNT>
20

> <PUBCHEM_ATOM_DEF_STEREO_COUNT>
0

> <PUBCHEM_ATOM_UDEF_STEREO_COUNT>
1

> <PUBCHEM_BOND_DEF_STEREO_COUNT>
0

> <PUBCHEM_BOND_UDEF_STEREO_COUNT>
0

> <PUBCHEM_ISOTOPIC_ATOM_COUNT>
0

> <PUBCHEM_COMPONENT_COUNT>
1

> <PUBCHEM_CACTVS_TAUTO_COUNT>
10

> <PUBCHEM_COORDINATE_TYPE>
1
5
255

> <PUBCHEM_BONDANNOTATIONS>
10  16  3
17  18  8
18  19  8
19  20  8
2  17  8
2  20  8
4  7  8
4  9  8
5  14  8
5  9  8
7  14  8

$$$$

