17395391
  -OEChem-06241222503D

 41 43  0     0  0  0  0  0  0999 V2000
   -3.4433    3.5575    1.1554 Cl  0  0  0  0  0  0  0  0  0  0  0  0
   -2.2742   -1.7327    0.7263 S   0  0  0  0  0  0  0  0  0  0  0  0
    3.5027   -0.4149   -1.9713 O   0  0  0  0  0  0  0  0  0  0  0  0
   -2.5730   -1.6645    2.1405 O   0  0  0  0  0  0  0  0  0  0  0  0
   -2.7749   -2.8168   -0.0910 O   0  0  0  0  0  0  0  0  0  0  0  0
    2.0689   -0.8586   -0.2051 N   0  0  0  0  0  0  0  0  0  0  0  0
   -0.5794   -1.6089    0.5071 N   0  0  0  0  0  0  0  0  0  0  0  0
    3.8154    0.9272    0.0122 C   0  0  0  0  0  0  0  0  0  0  0  0
    5.1090    1.5417   -0.5618 C   0  0  0  0  0  0  0  0  0  0  0  0
    4.6580    0.4767    1.2238 C   0  0  0  0  0  0  0  0  0  0  0  0
    5.6166    1.6394    0.8920 C   0  0  0  0  0  0  0  0  0  0  0  0
    3.1252   -0.1679   -0.8162 C   0  0  0  0  0  0  0  0  0  0  0  0
    1.4123   -1.9694   -0.8959 C   0  0  0  0  0  0  0  0  0  0  0  0
    1.5804   -0.6101    1.1546 C   0  0  0  0  0  0  0  0  0  0  0  0
   -0.1015   -1.7899   -0.8971 C   0  0  0  0  0  0  0  0  0  0  0  0
    0.0654   -0.4300    1.1607 C   0  0  0  0  0  0  0  0  0  0  0  0
   -2.7910   -0.2134   -0.0089 C   0  0  0  0  0  0  0  0  0  0  0  0
   -2.8987    0.9375    0.7717 C   0  0  0  0  0  0  0  0  0  0  0  0
   -3.0935   -0.1641   -1.3698 C   0  0  0  0  0  0  0  0  0  0  0  0
   -3.3091    2.1378    0.1916 C   0  0  0  0  0  0  0  0  0  0  0  0
   -3.5038    1.0362   -1.9498 C   0  0  0  0  0  0  0  0  0  0  0  0
   -3.6117    2.1872   -1.1691 C   0  0  0  0  0  0  0  0  0  0  0  0
    3.1030    1.7263    0.2701 H   0  0  0  0  0  0  0  0  0  0  0  0
    5.7060    0.8665   -1.1859 H   0  0  0  0  0  0  0  0  0  0  0  0
    4.9927    2.4959   -1.0825 H   0  0  0  0  0  0  0  0  0  0  0  0
    4.1877    0.5449    2.2078 H   0  0  0  0  0  0  0  0  0  0  0  0
    5.1122   -0.5153    1.1157 H   0  0  0  0  0  0  0  0  0  0  0  0
    6.6801    1.4371    1.0403 H   0  0  0  0  0  0  0  0  0  0  0  0
    5.3575    2.5817    1.3883 H   0  0  0  0  0  0  0  0  0  0  0  0
    1.6895   -2.8867   -0.3624 H   0  0  0  0  0  0  0  0  0  0  0  0
    1.7777   -2.0623   -1.9233 H   0  0  0  0  0  0  0  0  0  0  0  0
    2.0322    0.2765    1.5977 H   0  0  0  0  0  0  0  0  0  0  0  0
    1.8692   -1.4752    1.7632 H   0  0  0  0  0  0  0  0  0  0  0  0
   -0.5576   -2.6776   -1.3455 H   0  0  0  0  0  0  0  0  0  0  0  0
   -0.3627   -0.9132   -1.4987 H   0  0  0  0  0  0  0  0  0  0  0  0
   -0.1792    0.4868    0.6146 H   0  0  0  0  0  0  0  0  0  0  0  0
   -0.2753   -0.3348    2.1963 H   0  0  0  0  0  0  0  0  0  0  0  0
   -2.6641    0.9088    1.8328 H   0  0  0  0  0  0  0  0  0  0  0  0
   -3.0143   -1.0471   -1.9974 H   0  0  0  0  0  0  0  0  0  0  0  0
   -3.7386    1.0750   -3.0095 H   0  0  0  0  0  0  0  0  0  0  0  0
   -3.9326    3.1154   -1.6348 H   0  0  0  0  0  0  0  0  0  0  0  0
  1 20  1  0  0  0  0
  2  4  2  0  0  0  0
  2  5  2  0  0  0  0
  2  7  1  0  0  0  0
  2 17  1  0  0  0  0
  3 12  2  0  0  0  0
  6 12  1  0  0  0  0
  6 13  1  0  0  0  0
  6 14  1  0  0  0  0
  7 15  1  0  0  0  0
  7 16  1  0  0  0  0
  8  9  1  0  0  0  0
  8 10  1  0  0  0  0
  8 12  1  0  0  0  0
  8 23  1  0  0  0  0
  9 11  1  0  0  0  0
  9 24  1  0  0  0  0
  9 25  1  0  0  0  0
 10 11  1  0  0  0  0
 10 26  1  0  0  0  0
 10 27  1  0  0  0  0
 11 28  1  0  0  0  0
 11 29  1  0  0  0  0
 13 15  1  0  0  0  0
 13 30  1  0  0  0  0
 13 31  1  0  0  0  0
 14 16  1  0  0  0  0
 14 32  1  0  0  0  0
 14 33  1  0  0  0  0
 15 34  1  0  0  0  0
 15 35  1  0  0  0  0
 16 36  1  0  0  0  0
 16 37  1  0  0  0  0
 17 18  2  0  0  0  0
 17 19  1  0  0  0  0
 18 20  1  0  0  0  0
 18 38  1  0  0  0  0
 19 21  2  0  0  0  0
 19 39  1  0  0  0  0
 20 22  2  0  0  0  0
 21 22  1  0  0  0  0
 21 40  1  0  0  0  0
 22 41  1  0  0  0  0
M  END
> <PUBCHEM_COMPOUND_CID>
17395391

> <PUBCHEM_CONFORMER_RMSD>
0.8

> <PUBCHEM_CONFORMER_DIVERSEORDER>
1
46
51
36
40
37
22
57
6
34
27
43
78
13
66
68
11
74
32
76
56
3
54
59
75
71
31
33
48
69
65
17
41
79
84
35
44
63
81
20
49
26
53
9
62
2
61
52
80
70
14
15
67
39
28
24
19
82
7
55
12
10
42
83
50
58
21
73
8
77
30
47
18
64
38
5
29
60
72
23
16
25
45
4

> <PUBCHEM_MMFF94_PARTIAL_CHARGES>
23
1 -0.18
12 0.58
13 0.3
14 0.3
15 0.36
16 0.36
17 -0.01
18 -0.15
19 -0.15
2 1.45
20 0.18
21 -0.15
22 -0.15
3 -0.57
38 0.15
39 0.15
4 -0.65
40 0.15
41 0.15
5 -0.65
6 -0.66
7 -0.85
8 0.05

> <PUBCHEM_EFFECTIVE_ROTOR_COUNT>
6

> <PUBCHEM_PHARMACOPHORE_FEATURES>
6
1 3 acceptor
1 4 acceptor
1 5 acceptor
4 8 9 10 11 rings
6 17 18 19 20 21 22 rings
6 6 7 13 14 15 16 rings

> <PUBCHEM_HEAVY_ATOM_COUNT>
22

> <PUBCHEM_ATOM_DEF_STEREO_COUNT>
0

> <PUBCHEM_ATOM_UDEF_STEREO_COUNT>
0

> <PUBCHEM_BOND_DEF_STEREO_COUNT>
0

> <PUBCHEM_BOND_UDEF_STEREO_COUNT>
0

> <PUBCHEM_ISOTOPIC_ATOM_COUNT>
0

> <PUBCHEM_COMPONENT_COUNT>
1

> <PUBCHEM_CACTVS_TAUTO_COUNT>
1

> <PUBCHEM_CONFORMER_ID>
01096EBF00000001

> <PUBCHEM_MMFF94_ENERGY>
38.7634

> <PUBCHEM_FEATURE_SELFOVERLAP>
30.464

> <PUBCHEM_SHAPE_FINGERPRINT>
10291535 26 18335707121830591105
10498660 4 18335143119531086628
10646746 165 18412822478483844830
10928967 22 9295285058405709612
10937287 8 18048034361715812305
11370993 144 12966860069040074508
11405975 8 18343301513558857154
11552529 35 13829548913817570680
11640471 11 17632024147130993051
12107183 9 18128270071996508058
12173636 292 18337663230810748447
12403259 415 18262503845820082942
12633257 1 12391222894175122597
12670546 177 16877950408042630028
13103583 49 12463289275378729636
13583140 156 18130515124052418178
13965767 371 17343790558090517181
14142880 1 18131071545929771445
14178342 30 16988836168383611218
14251758 9 18342184401518884450
14251764 30 5471996237887387613
14251764 38 18339360756400299684
14251764 75 17754449385464935697
14429115 67 10446770566582695057
14713325 29 18336824200053838811
14950920 106 13901897938513666948
15163728 17 18338222839205773708
15209294 21 17346328089430814870
15295992 7 17981024629760694435
15537594 2 7493012894150076852
1741750 31 18343301504562383211
17780758 139 12535354518932694868
18186145 218 17895737544487766334
21095088 737 18040442087527436817
21401589 2 18341327881501989305
21864079 5 18263643042550307937
22182937 141 18341603845988075609
22956985 138 16114007224840138450
235170 7 16660365878758530052
23557571 272 18339080367828242683
23559900 14 18189618414206260922
27216 239 18341607114484366787
2838139 119 18259991457682936104
312425 83 17241606298201982348
341906 21 18343026549805054592
3737641 26 10303270087285503648
474 4 18122912185909074577
574716 61 14779267467055615576
633830 44 18190179181561187911
7288768 16 18199459030162848057
9981440 41 18411709798064937723

> <PUBCHEM_SHAPE_MULTIPOLES>
430.9
10.72
3.12
1.73
12.42
1.02
-0.17
8.2
-0.56
-3.26
0.61
-0.64
-0.05
0.76

> <PUBCHEM_SHAPE_SELFOVERLAP>
880.564

> <PUBCHEM_SHAPE_VOLUME>
250.9

> <PUBCHEM_COORDINATE_TYPE>
2
5
10

$$$$

