4905
  -OEChem-06261200243D

 51 53  0     1  0  0  0  0  0999 V2000
    2.8437    0.6727    0.0493 N   0  3  0  0  0  0  0  0  0  0  0  0
    1.6796   -0.3504    0.1769 C   0  0  2  0  0  0  0  0  0  0  0  0
    2.2268    1.9664    0.6035 C   0  0  0  0  0  0  0  0  0  0  0  0
    0.7680    1.9382    0.1651 C   0  0  0  0  0  0  0  0  0  0  0  0
    0.4197    0.4809    0.1219 C   0  0  0  0  0  0  0  0  0  0  0  0
    3.2118    0.8528   -1.4296 C   0  0  0  0  0  0  0  0  0  0  0  0
    4.1189    0.3195    0.7975 C   0  0  0  0  0  0  0  0  0  0  0  0
    1.7502   -1.1562    1.4758 C   0  0  0  0  0  0  0  0  0  0  0  0
   -0.8276    0.0051    0.0336 C   0  0  0  0  0  0  0  0  0  0  0  0
    3.8421   -0.4225   -1.9451 C   0  0  0  0  0  0  0  0  0  0  0  0
    5.1270    1.4332    0.6172 C   0  0  0  0  0  0  0  0  0  0  0  0
   -1.0242   -1.4707    0.0001 C   0  0  0  0  0  0  0  0  0  0  0  0
   -1.9546    0.9767   -0.0259 C   0  0  0  0  0  0  0  0  0  0  0  0
   -1.0335   -2.1107   -1.2199 C   0  0  0  0  0  0  0  0  0  0  0  0
   -2.5345    1.3922    1.1529 C   0  0  0  0  0  0  0  0  0  0  0  0
   -1.1902   -2.1442    1.1906 C   0  0  0  0  0  0  0  0  0  0  0  0
   -2.3781    1.4257   -1.2577 C   0  0  0  0  0  0  0  0  0  0  0  0
   -1.2180   -3.4930   -1.2512 C   0  0  0  0  0  0  0  0  0  0  0  0
   -3.5903    2.3021    1.0970 C   0  0  0  0  0  0  0  0  0  0  0  0
   -1.3746   -3.5265    1.1594 C   0  0  0  0  0  0  0  0  0  0  0  0
   -3.4338    2.3356   -1.3137 C   0  0  0  0  0  0  0  0  0  0  0  0
   -1.3884   -4.2009   -0.0615 C   0  0  0  0  0  0  0  0  0  0  0  0
   -4.0399    2.7739   -0.1363 C   0  0  0  0  0  0  0  0  0  0  0  0
    1.7172   -1.0304   -0.6741 H   0  0  0  0  0  0  0  0  0  0  0  0
    2.7559    2.8379    0.2063 H   0  0  0  0  0  0  0  0  0  0  0  0
    2.3076    1.9349    1.6966 H   0  0  0  0  0  0  0  0  0  0  0  0
    0.6692    2.3813   -0.8324 H   0  0  0  0  0  0  0  0  0  0  0  0
    0.1631    2.5175    0.8687 H   0  0  0  0  0  0  0  0  0  0  0  0
    2.2809    1.0434   -1.9758 H   0  0  0  0  0  0  0  0  0  0  0  0
    3.8457    1.7339   -1.5615 H   0  0  0  0  0  0  0  0  0  0  0  0
    3.8735    0.2626    1.8638 H   0  0  0  0  0  0  0  0  0  0  0  0
    4.4936   -0.6558    0.4756 H   0  0  0  0  0  0  0  0  0  0  0  0
    2.7564   -1.5334    1.6782 H   0  0  0  0  0  0  0  0  0  0  0  0
    1.4229   -0.5797    2.3476 H   0  0  0  0  0  0  0  0  0  0  0  0
    1.1767   -2.0774    1.4207 H   0  0  0  0  0  0  0  0  0  0  0  0
    3.3578   -1.3574   -1.6617 H   0  0  0  0  0  0  0  0  0  0  0  0
    3.8398   -0.3928   -3.0415 H   0  0  0  0  0  0  0  0  0  0  0  0
    4.8972   -0.4947   -1.6611 H   0  0  0  0  0  0  0  0  0  0  0  0
    4.7574    2.4211    0.9015 H   0  0  0  0  0  0  0  0  0  0  0  0
    5.9807    1.2325    1.2766 H   0  0  0  0  0  0  0  0  0  0  0  0
    5.5483    1.4837   -0.3899 H   0  0  0  0  0  0  0  0  0  0  0  0
   -0.9003   -1.5693   -2.1522 H   0  0  0  0  0  0  0  0  0  0  0  0
   -2.1916    1.0320    2.1185 H   0  0  0  0  0  0  0  0  0  0  0  0
   -1.1929   -1.6287    2.1471 H   0  0  0  0  0  0  0  0  0  0  0  0
   -1.9125    1.0919   -2.1806 H   0  0  0  0  0  0  0  0  0  0  0  0
   -1.2284   -4.0181   -2.2018 H   0  0  0  0  0  0  0  0  0  0  0  0
   -4.0621    2.6436    2.0137 H   0  0  0  0  0  0  0  0  0  0  0  0
   -1.5096   -4.0773    2.0856 H   0  0  0  0  0  0  0  0  0  0  0  0
   -3.7836    2.7031   -2.2740 H   0  0  0  0  0  0  0  0  0  0  0  0
   -1.5323   -5.2771   -0.0858 H   0  0  0  0  0  0  0  0  0  0  0  0
   -4.8619    3.4825   -0.1799 H   0  0  0  0  0  0  0  0  0  0  0  0
  1  2  1  0  0  0  0
  1  3  1  0  0  0  0
  1  6  1  0  0  0  0
  1  7  1  0  0  0  0
  2  5  1  0  0  0  0
  2  8  1  0  0  0  0
  2 24  1  0  0  0  0
  3  4  1  0  0  0  0
  3 25  1  0  0  0  0
  3 26  1  0  0  0  0
  4  5  1  0  0  0  0
  4 27  1  0  0  0  0
  4 28  1  0  0  0  0
  5  9  2  0  0  0  0
  6 10  1  0  0  0  0
  6 29  1  0  0  0  0
  6 30  1  0  0  0  0
  7 11  1  0  0  0  0
  7 31  1  0  0  0  0
  7 32  1  0  0  0  0
  8 33  1  0  0  0  0
  8 34  1  0  0  0  0
  8 35  1  0  0  0  0
  9 12  1  0  0  0  0
  9 13  1  0  0  0  0
 10 36  1  0  0  0  0
 10 37  1  0  0  0  0
 10 38  1  0  0  0  0
 11 39  1  0  0  0  0
 11 40  1  0  0  0  0
 11 41  1  0  0  0  0
 12 14  2  0  0  0  0
 12 16  1  0  0  0  0
 13 15  2  0  0  0  0
 13 17  1  0  0  0  0
 14 18  1  0  0  0  0
 14 42  1  0  0  0  0
 15 19  1  0  0  0  0
 15 43  1  0  0  0  0
 16 20  2  0  0  0  0
 16 44  1  0  0  0  0
 17 21  2  0  0  0  0
 17 45  1  0  0  0  0
 18 22  2  0  0  0  0
 18 46  1  0  0  0  0
 19 23  2  0  0  0  0
 19 47  1  0  0  0  0
 20 22  1  0  0  0  0
 20 48  1  0  0  0  0
 21 23  1  0  0  0  0
 21 49  1  0  0  0  0
 22 50  1  0  0  0  0
 23 51  1  0  0  0  0
M  CHG  1   1   1
M  END
> <PUBCHEM_COMPOUND_CID>
4905

> <PUBCHEM_CONFORMER_RMSD>
0.8

> <PUBCHEM_CONFORMER_DIVERSEORDER>
1
2
3

> <PUBCHEM_MMFF94_PARTIAL_CHARGES>
30
1 -1.01
12 0.03
13 0.03
14 -0.15
15 -0.15
16 -0.15
17 -0.15
18 -0.15
19 -0.15
2 0.64
20 -0.15
21 -0.15
22 -0.15
23 -0.15
3 0.5
4 0.14
42 0.15
43 0.15
44 0.15
45 0.15
46 0.15
47 0.15
48 0.15
49 0.15
5 -0.28
50 0.15
51 0.15
6 0.5
7 0.5
9 -0.06

> <PUBCHEM_EFFECTIVE_ROTOR_COUNT>
4.8

> <PUBCHEM_PHARMACOPHORE_FEATURES>
4
1 1 cation
5 1 2 3 4 5 rings
6 12 14 16 18 20 22 rings
6 13 15 17 19 21 23 rings

> <PUBCHEM_HEAVY_ATOM_COUNT>
23

> <PUBCHEM_ATOM_DEF_STEREO_COUNT>
0

> <PUBCHEM_ATOM_UDEF_STEREO_COUNT>
1

> <PUBCHEM_BOND_DEF_STEREO_COUNT>
0

> <PUBCHEM_BOND_UDEF_STEREO_COUNT>
0

> <PUBCHEM_ISOTOPIC_ATOM_COUNT>
0

> <PUBCHEM_COMPONENT_COUNT>
1

> <PUBCHEM_CACTVS_TAUTO_COUNT>
1

> <PUBCHEM_CONFORMER_ID>
0000132900000001

> <PUBCHEM_MMFF94_ENERGY>
94.826

> <PUBCHEM_FEATURE_SELFOVERLAP>
20.297

> <PUBCHEM_SHAPE_FINGERPRINT>
107951 10 17772439469974208430
1100329 8 18195536019671923218
11101153 10 17622161266249145108
11578080 2 16881333463714133067
121448 382 18335431166335066661
12160290 23 18339641135969744291
12553582 1 17688296898832567918
12643181 29 18336260250375591174
12714826 92 18119231892683490362
12730499 353 18124588941542885825
12788726 201 18125994966935906323
13004483 165 17977388226853530227
13140716 1 17907296555242370907
133893 2 17617087453503089625
13681431 1 17259063420652056791
14178342 30 18269285577642255840
14955137 171 17835243728486734082
15309172 13 18340206405263891513
15842332 3 17631451177324675940
15906896 17 18411422769827316699
16752209 62 18338811034861227819
17138139 8 17683852845011136959
17980427 23 17845093974962706852
1813 80 17545022819592400287
18186145 218 18188771772292132877
19591789 44 18339354266551221507
20600515 1 17050518560232122505
20645476 183 18272081721067691076
20739085 24 17910376617982542232
20905425 154 16749594859356764038
21033648 29 18268166390538272880
21120745 212 17765411176753081901
21285901 2 17969773082524058279
21344244 78 10292094526277627951
21524375 3 18341618156755509937
21731228 192 18340483465024349321
22182313 1 17822839885106236340
22907989 373 18196641909309666917
22956985 138 17699282480504756883
23419403 2 17102786341288394391
23557571 272 18188208689795689872
23558518 356 18055633902423849624
23598288 3 18268703931485360622
283562 15 17981900635569205082
298252 57 18342461490526786801
3084891 72 18263922322840785392
3091708 16 9052792162597638651
3380486 145 17251757762722493591
3729539 64 17761747952091893150
458136 41 18051678126085664657
474 4 18119537788960459737
6138700 20 17760362589010813278
633830 44 17896318206522540229
6443956 14 17329713115973687859
7399639 24 17466227431785535336
7615 1 17631171879849100172
81228 2 18124035633252285361
8272917 22 17978512271677431033
9709674 26 18187364273233855700
9981440 41 16664625279351276576

> <PUBCHEM_SHAPE_MULTIPOLES>
468.35
7.31
4.55
1.54
6.23
5.01
0.35
-6.88
0.35
-5.03
-0.02
0.28
0.27
0.36

> <PUBCHEM_SHAPE_SELFOVERLAP>
998.502

> <PUBCHEM_SHAPE_VOLUME>
260.7

> <PUBCHEM_COORDINATE_TYPE>
2
5
10

$$$$

