17395272
  -OEChem-06241222492D

 61 64  0     1  0  0  0  0  0999 V2000
    3.2482    4.9785    0.0000 S   0  0  0  0  0  0  0  0  0  0  0  0
    3.7601   -0.8921    0.0000 S   0  0  0  0  0  0  0  0  0  0  0  0
    3.6549    5.8921    0.0000 O   0  0  0  0  0  0  0  0  0  0  0  0
    2.5050    5.6476    0.0000 O   0  0  0  0  0  0  0  0  0  0  0  0
    5.4921   -2.8921    0.0000 O   0  0  0  0  0  0  0  0  0  0  0  0
    2.9511    0.6957    0.0000 N   0  0  0  0  0  0  0  0  0  0  0  0
    4.2601    1.6468    0.0000 N   0  0  0  0  0  0  0  0  0  0  0  0
    4.5691    0.6957    0.0000 N   0  0  0  0  0  0  0  0  0  0  0  0
    3.7601   -2.8921    0.0000 N   0  0  0  0  0  0  0  0  0  0  0  0
    3.0790    3.3693    0.0000 C   0  0  3  0  0  0  0  0  0  0  0  0
    2.5790    4.2354    0.0000 C   0  0  0  0  0  0  0  0  0  0  0  0
    4.0572    3.5773    0.0000 C   0  0  0  0  0  0  0  0  0  0  0  0
    4.1617    4.5718    0.0000 C   0  0  0  0  0  0  0  0  0  0  0  0
    2.6723    2.4558    0.0000 C   0  0  0  0  0  0  0  0  0  0  0  0
    3.2601    1.6468    0.0000 C   0  0  0  0  0  0  0  0  0  0  0  0
    3.7601    0.1079    0.0000 C   0  0  0  0  0  0  0  0  0  0  0  0
    2.0000    0.3867    0.0000 C   0  0  0  0  0  0  0  0  0  0  0  0
    4.6261   -1.3921    0.0000 C   0  0  3  0  0  0  0  0  0  0  0  0
    5.4921   -0.8921    0.0000 C   0  0  0  0  0  0  0  0  0  0  0  0
    4.6261   -2.3921    0.0000 C   0  0  0  0  0  0  0  0  0  0  0  0
    6.3582   -1.3921    0.0000 C   0  0  0  0  0  0  0  0  0  0  0  0
    5.4921    0.1079    0.0000 C   0  0  0  0  0  0  0  0  0  0  0  0
    3.7601   -3.8921    0.0000 C   0  0  0  0  0  0  0  0  0  0  0  0
    2.8940   -4.3921    0.0000 C   0  0  0  0  0  0  0  0  0  0  0  0
    4.6261   -4.3921    0.0000 C   0  0  0  0  0  0  0  0  0  0  0  0
    7.2242   -0.8921    0.0000 C   0  0  0  0  0  0  0  0  0  0  0  0
    6.3582    0.6079    0.0000 C   0  0  0  0  0  0  0  0  0  0  0  0
    4.6261   -5.3921    0.0000 C   0  0  0  0  0  0  0  0  0  0  0  0
    2.8940   -5.3921    0.0000 C   0  0  0  0  0  0  0  0  0  0  0  0
    7.2242    0.1079    0.0000 C   0  0  0  0  0  0  0  0  0  0  0  0
    3.7601   -5.8921    0.0000 C   0  0  0  0  0  0  0  0  0  0  0  0
    2.0280   -3.8921    0.0000 C   0  0  0  0  0  0  0  0  0  0  0  0
    5.4921   -5.8921    0.0000 C   0  0  0  0  0  0  0  0  0  0  0  0
    3.4692    2.8875    0.0000 H   0  0  0  0  0  0  0  0  0  0  0  0
    2.1642    4.6961    0.0000 H   0  0  0  0  0  0  0  0  0  0  0  0
    2.0774    3.8709    0.0000 H   0  0  0  0  0  0  0  0  0  0  0  0
    4.1220    2.9606    0.0000 H   0  0  0  0  0  0  0  0  0  0  0  0
    4.6772    3.5773    0.0000 H   0  0  0  0  0  0  0  0  0  0  0  0
    4.7682    4.4429    0.0000 H   0  0  0  0  0  0  0  0  0  0  0  0
    4.3533    5.1614    0.0000 H   0  0  0  0  0  0  0  0  0  0  0  0
    2.1583    2.8025    0.0000 H   0  0  0  0  0  0  0  0  0  0  0  0
    2.2416    2.0098    0.0000 H   0  0  0  0  0  0  0  0  0  0  0  0
    1.8084    0.9764    0.0000 H   0  0  0  0  0  0  0  0  0  0  0  0
    1.4103    0.1951    0.0000 H   0  0  0  0  0  0  0  0  0  0  0  0
    2.1916   -0.2029    0.0000 H   0  0  0  0  0  0  0  0  0  0  0  0
    4.0892   -1.7021    0.0000 H   0  0  0  0  0  0  0  0  0  0  0  0
    3.2231   -2.5821    0.0000 H   0  0  0  0  0  0  0  0  0  0  0  0
    6.3582   -2.0121    0.0000 H   0  0  0  0  0  0  0  0  0  0  0  0
    4.9552    0.4179    0.0000 H   0  0  0  0  0  0  0  0  0  0  0  0
    5.1630   -4.0821    0.0000 H   0  0  0  0  0  0  0  0  0  0  0  0
    7.7611   -1.2021    0.0000 H   0  0  0  0  0  0  0  0  0  0  0  0
    6.3582    1.2279    0.0000 H   0  0  0  0  0  0  0  0  0  0  0  0
    2.3571   -5.7021    0.0000 H   0  0  0  0  0  0  0  0  0  0  0  0
    7.7611    0.4179    0.0000 H   0  0  0  0  0  0  0  0  0  0  0  0
    3.7601   -6.5121    0.0000 H   0  0  0  0  0  0  0  0  0  0  0  0
    2.3380   -3.3551    0.0000 H   0  0  0  0  0  0  0  0  0  0  0  0
    1.4911   -3.5821    0.0000 H   0  0  0  0  0  0  0  0  0  0  0  0
    1.7180   -4.4290    0.0000 H   0  0  0  0  0  0  0  0  0  0  0  0
    5.1821   -6.4290    0.0000 H   0  0  0  0  0  0  0  0  0  0  0  0
    6.0291   -6.2021    0.0000 H   0  0  0  0  0  0  0  0  0  0  0  0
    5.8021   -5.3551    0.0000 H   0  0  0  0  0  0  0  0  0  0  0  0
  1  3  2  0  0  0  0
  1  4  2  0  0  0  0
  1 11  1  0  0  0  0
  1 13  1  0  0  0  0
  2 16  1  0  0  0  0
  2 18  1  0  0  0  0
  5 20  2  0  0  0  0
  6 15  1  0  0  0  0
  6 16  1  0  0  0  0
  6 17  1  0  0  0  0
  7  8  1  0  0  0  0
  7 15  2  0  0  0  0
  8 16  2  0  0  0  0
  9 20  1  0  0  0  0
  9 23  1  0  0  0  0
  9 47  1  0  0  0  0
 10 11  1  0  0  0  0
 10 12  1  0  0  0  0
 10 14  1  0  0  0  0
 10 34  1  0  0  0  0
 11 35  1  0  0  0  0
 11 36  1  0  0  0  0
 12 13  1  0  0  0  0
 12 37  1  0  0  0  0
 12 38  1  0  0  0  0
 13 39  1  0  0  0  0
 13 40  1  0  0  0  0
 14 15  1  0  0  0  0
 14 41  1  0  0  0  0
 14 42  1  0  0  0  0
 17 43  1  0  0  0  0
 17 44  1  0  0  0  0
 17 45  1  0  0  0  0
 18 19  1  0  0  0  0
 18 20  1  0  0  0  0
 18 46  1  0  0  0  0
 19 21  2  0  0  0  0
 19 22  1  0  0  0  0
 21 26  1  0  0  0  0
 21 48  1  0  0  0  0
 22 27  2  0  0  0  0
 22 49  1  0  0  0  0
 23 24  2  0  0  0  0
 23 25  1  0  0  0  0
 24 29  1  0  0  0  0
 24 32  1  0  0  0  0
 25 28  2  0  0  0  0
 25 50  1  0  0  0  0
 26 30  2  0  0  0  0
 26 51  1  0  0  0  0
 27 30  1  0  0  0  0
 27 52  1  0  0  0  0
 28 31  1  0  0  0  0
 28 33  1  0  0  0  0
 29 31  2  0  0  0  0
 29 53  1  0  0  0  0
 30 54  1  0  0  0  0
 31 55  1  0  0  0  0
 32 56  1  0  0  0  0
 32 57  1  0  0  0  0
 32 58  1  0  0  0  0
 33 59  1  0  0  0  0
 33 60  1  0  0  0  0
 33 61  1  0  0  0  0
M  END
> <PUBCHEM_COMPOUND_CID>
17395272

> <PUBCHEM_COMPOUND_CANONICALIZED>
1

> <PUBCHEM_CACTVS_COMPLEXITY>
768

> <PUBCHEM_CACTVS_HBOND_ACCEPTOR>
6

> <PUBCHEM_CACTVS_HBOND_DONOR>
1

> <PUBCHEM_CACTVS_ROTATABLE_BOND>
7

> <PUBCHEM_CACTVS_SUBSKEYS>
AAADceB7sABgAAAAAAAAAAAAAAAAAWJAAAAwYAAAAAAAAAAB0AAAHgQYAAAADQiF2wSz0IfMEAqqAidydHDS0AthArAdyAE4ZIiIKDLgnZGEIAhgnALoyAcYiICOQAAAQAACAACAAACAAAQAAAAAAAAAAA==

> <PUBCHEM_IUPAC_OPENEYE_NAME>
N-(2,5-dimethylphenyl)-2-[[5-[(1,1-dioxothiolan-3-yl)methyl]-4-methyl-1,2,4-triazol-3-yl]sulfanyl]-2-phenyl-acetamide

> <PUBCHEM_IUPAC_CAS_NAME>
N-(2,5-dimethylphenyl)-2-[[5-[(1,1-dioxo-3-thiolanyl)methyl]-4-methyl-1,2,4-triazol-3-yl]thio]-2-phenylacetamide

> <PUBCHEM_IUPAC_NAME>
N-(2,5-dimethylphenyl)-2-[[5-[(1,1-dioxothiolan-3-yl)methyl]-4-methyl-1,2,4-triazol-3-yl]sulfanyl]-2-phenylacetamide

> <PUBCHEM_IUPAC_SYSTEMATIC_NAME>
2-[[5-[[1,1-bis(oxidanylidene)thiolan-3-yl]methyl]-4-methyl-1,2,4-triazol-3-yl]sulfanyl]-N-(2,5-dimethylphenyl)-2-phenyl-ethanamide

> <PUBCHEM_IUPAC_TRADITIONAL_NAME>
2-[[5-[(1,1-diketothiolan-3-yl)methyl]-4-methyl-1,2,4-triazol-3-yl]thio]-N-(2,5-dimethylphenyl)-2-phenyl-acetamide

> <PUBCHEM_IUPAC_INCHI>
InChI=1S/C24H28N4O3S2/c1-16-9-10-17(2)20(13-16)25-23(29)22(19-7-5-4-6-8-19)32-24-27-26-21(28(24)3)14-18-11-12-33(30,31)15-18/h4-10,13,18,22H,11-12,14-15H2,1-3H3,(H,25,29)

> <PUBCHEM_IUPAC_INCHIKEY>
TXMMTTHDBKHCDE-UHFFFAOYSA-N

> <PUBCHEM_XLOGP3_AA>
3.7

> <PUBCHEM_EXACT_MASS>
484.160283

> <PUBCHEM_MOLECULAR_FORMULA>
C24H28N4O3S2

> <PUBCHEM_MOLECULAR_WEIGHT>
484.63412

> <PUBCHEM_OPENEYE_CAN_SMILES>
CC1=CC(=C(C=C1)C)NC(=O)C(C2=CC=CC=C2)SC3=NN=C(N3C)CC4CCS(=O)(=O)C4

> <PUBCHEM_OPENEYE_ISO_SMILES>
CC1=CC(=C(C=C1)C)NC(=O)C(C2=CC=CC=C2)SC3=NN=C(N3C)CC4CCS(=O)(=O)C4

> <PUBCHEM_CACTVS_TPSA>
128

> <PUBCHEM_MONOISOTOPIC_WEIGHT>
484.160283

> <PUBCHEM_TOTAL_CHARGE>
0

> <PUBCHEM_HEAVY_ATOM_COUNT>
33

> <PUBCHEM_ATOM_DEF_STEREO_COUNT>
0

> <PUBCHEM_ATOM_UDEF_STEREO_COUNT>
2

> <PUBCHEM_BOND_DEF_STEREO_COUNT>
0

> <PUBCHEM_BOND_UDEF_STEREO_COUNT>
0

> <PUBCHEM_ISOTOPIC_ATOM_COUNT>
0

> <PUBCHEM_COMPONENT_COUNT>
1

> <PUBCHEM_CACTVS_TAUTO_COUNT>
3

> <PUBCHEM_COORDINATE_TYPE>
1
5
255

> <PUBCHEM_BONDANNOTATIONS>
10  14  3
18  20  3
19  21  8
19  22  8
21  26  8
22  27  8
23  24  8
23  25  8
24  29  8
25  28  8
26  30  8
27  30  8
28  31  8
29  31  8
6  15  8
6  16  8
7  15  8
7  8  8
8  16  8

$$$$

