13870
  -OEChem-06241222403D

 15 15  0     0  0  0  0  0  0999 V2000
   -2.7030    1.3258    0.0025 Cl  0  0  0  0  0  0  0  0  0  0  0  0
    2.7026    1.3263   -0.0002 Cl  0  0  0  0  0  0  0  0  0  0  0  0
    2.6676   -1.8812    0.0015 Cl  0  0  0  0  0  0  0  0  0  0  0  0
   -2.6674   -1.8815   -0.0013 Cl  0  0  0  0  0  0  0  0  0  0  0  0
    0.0000    1.1401   -0.0005 C   0  0  0  0  0  0  0  0  0  0  0  0
   -1.2080    0.4425   -0.0004 C   0  0  0  0  0  0  0  0  0  0  0  0
    1.2080    0.4426   -0.0004 C   0  0  0  0  0  0  0  0  0  0  0  0
   -0.0003    2.6400   -0.0008 C   0  0  0  0  0  0  0  0  0  0  0  0
    1.2081   -0.9523   -0.0001 C   0  0  0  0  0  0  0  0  0  0  0  0
   -1.2078   -0.9525   -0.0002 C   0  0  0  0  0  0  0  0  0  0  0  0
    0.0002   -1.6498    0.0000 C   0  0  0  0  0  0  0  0  0  0  0  0
   -0.0034    3.0134   -1.0301 H   0  0  0  0  0  0  0  0  0  0  0  0
   -0.8566    3.0669    0.5295 H   0  0  0  0  0  0  0  0  0  0  0  0
    0.8584    3.0679    0.5245 H   0  0  0  0  0  0  0  0  0  0  0  0
    0.0003   -2.7381    0.0002 H   0  0  0  0  0  0  0  0  0  0  0  0
  1  6  1  0  0  0  0
  2  7  1  0  0  0  0
  3  9  1  0  0  0  0
  4 10  1  0  0  0  0
  5  6  2  0  0  0  0
  5  7  1  0  0  0  0
  5  8  1  0  0  0  0
  6 10  1  0  0  0  0
  7  9  2  0  0  0  0
  8 12  1  0  0  0  0
  8 13  1  0  0  0  0
  8 14  1  0  0  0  0
  9 11  1  0  0  0  0
 10 11  2  0  0  0  0
 11 15  1  0  0  0  0
M  END
> <PUBCHEM_COMPOUND_CID>
13870

> <PUBCHEM_CONFORMER_RMSD>
0.4

> <PUBCHEM_CONFORMER_DIVERSEORDER>
1

> <PUBCHEM_MMFF94_PARTIAL_CHARGES>
12
1 -0.18
10 0.18
11 -0.15
15 0.15
2 -0.18
3 -0.18
4 -0.18
5 -0.14
6 0.18
7 0.18
8 0.14
9 0.18

> <PUBCHEM_EFFECTIVE_ROTOR_COUNT>
0

> <PUBCHEM_PHARMACOPHORE_FEATURES>
1
6 5 6 7 9 10 11 rings

> <PUBCHEM_HEAVY_ATOM_COUNT>
11

> <PUBCHEM_ATOM_DEF_STEREO_COUNT>
0

> <PUBCHEM_ATOM_UDEF_STEREO_COUNT>
0

> <PUBCHEM_BOND_DEF_STEREO_COUNT>
0

> <PUBCHEM_BOND_UDEF_STEREO_COUNT>
0

> <PUBCHEM_ISOTOPIC_ATOM_COUNT>
0

> <PUBCHEM_COMPONENT_COUNT>
1

> <PUBCHEM_CACTVS_TAUTO_COUNT>
1

> <PUBCHEM_CONFORMER_ID>
0000362E00000001

> <PUBCHEM_MMFF94_ENERGY>
28.8809

> <PUBCHEM_FEATURE_SELFOVERLAP>
5.074

> <PUBCHEM_SHAPE_FINGERPRINT>
10967382 1 18266740357993875845
11206711 2 18267866073444082493
12423570 1 14295931685848968932
12524768 44 18336541728375436518
13140716 1 18410855507373036370
13380535 21 18410845564523622244
16945 1 18409732884526318092
193761 8 18410575084663078918
20871998 184 18115592684967893126
21040471 1 18410573989446645793
21501502 16 18410856559645233223
2334 1 18410856533870200162
23526114 1 18410011022450550966
23552423 10 18343862221212022662
23559900 14 18119247505581318702
241688 4 18411419548248007866
2748010 2 18410012134720363166
53812653 166 18261957340642570321
66348 1 18409728473594671276

> <PUBCHEM_SHAPE_MULTIPOLES>
233.85
3.91
2.81
0.63
0
0.43
0
-0.82
0
0
0
0
0
0

> <PUBCHEM_SHAPE_SELFOVERLAP>
452.41

> <PUBCHEM_SHAPE_VOLUME>
140.7

> <PUBCHEM_COORDINATE_TYPE>
2
5
10

$$$$

