13092
  -OEChem-06261207453D

 32 35  0     0  0  0  0  0  0999 V2000
    5.7584    0.2147   -0.0003 N   0  0  0  0  0  0  0  0  0  0  0  0
    0.1089   -0.5814    0.0002 C   0  0  0  0  0  0  0  0  0  0  0  0
   -0.7486    0.5575    0.0001 C   0  0  0  0  0  0  0  0  0  0  0  0
    1.5452   -0.4225    0.0002 C   0  0  0  0  0  0  0  0  0  0  0  0
   -2.1849    0.3986    0.0001 C   0  0  0  0  0  0  0  0  0  0  0  0
    2.0973    0.8807   -0.0003 C   0  0  0  0  0  0  0  0  0  0  0  0
   -2.7372   -0.9046   -0.0003 C   0  0  0  0  0  0  0  0  0  0  0  0
   -0.1320    1.8251    0.0000 C   0  0  0  0  0  0  0  0  0  0  0  0
   -0.5078   -1.8491    0.0001 C   0  0  0  0  0  0  0  0  0  0  0  0
    1.2519    1.9852   -0.0003 C   0  0  0  0  0  0  0  0  0  0  0  0
   -1.8917   -2.0091   -0.0003 C   0  0  0  0  0  0  0  0  0  0  0  0
    2.4755   -1.4955    0.0005 C   0  0  0  0  0  0  0  0  0  0  0  0
    3.4895    1.0782   -0.0002 C   0  0  0  0  0  0  0  0  0  0  0  0
   -3.1153    1.4717    0.0006 C   0  0  0  0  0  0  0  0  0  0  0  0
   -4.1294   -1.1020   -0.0005 C   0  0  0  0  0  0  0  0  0  0  0  0
    4.3662   -0.0011    0.0000 C   0  0  0  0  0  0  0  0  0  0  0  0
    3.8586   -1.2900    0.0004 C   0  0  0  0  0  0  0  0  0  0  0  0
   -4.4984    1.2662    0.0003 C   0  0  0  0  0  0  0  0  0  0  0  0
   -5.0060   -0.0227   -0.0002 C   0  0  0  0  0  0  0  0  0  0  0  0
   -0.7184    2.7403   -0.0001 H   0  0  0  0  0  0  0  0  0  0  0  0
    0.0785   -2.7643    0.0001 H   0  0  0  0  0  0  0  0  0  0  0  0
    1.6553    2.9962   -0.0006 H   0  0  0  0  0  0  0  0  0  0  0  0
   -2.2954   -3.0201   -0.0005 H   0  0  0  0  0  0  0  0  0  0  0  0
    2.1419   -2.5299    0.0008 H   0  0  0  0  0  0  0  0  0  0  0  0
    3.8936    2.0901   -0.0005 H   0  0  0  0  0  0  0  0  0  0  0  0
   -2.7819    2.5061    0.0010 H   0  0  0  0  0  0  0  0  0  0  0  0
   -4.5457   -2.1078   -0.0008 H   0  0  0  0  0  0  0  0  0  0  0  0
    4.5229   -2.1504    0.0006 H   0  0  0  0  0  0  0  0  0  0  0  0
   -5.1725    2.1177    0.0005 H   0  0  0  0  0  0  0  0  0  0  0  0
   -6.0786   -0.1895   -0.0004 H   0  0  0  0  0  0  0  0  0  0  0  0
    6.1252    1.1571    0.0000 H   0  0  0  0  0  0  0  0  0  0  0  0
    6.3930   -0.5727    0.0005 H   0  0  0  0  0  0  0  0  0  0  0  0
  1 16  1  0  0  0  0
  1 31  1  0  0  0  0
  1 32  1  0  0  0  0
  2  3  2  0  0  0  0
  2  4  1  0  0  0  0
  2  9  1  0  0  0  0
  3  5  1  0  0  0  0
  3  8  1  0  0  0  0
  4  6  2  0  0  0  0
  4 12  1  0  0  0  0
  5  7  1  0  0  0  0
  5 14  2  0  0  0  0
  6 10  1  0  0  0  0
  6 13  1  0  0  0  0
  7 11  1  0  0  0  0
  7 15  2  0  0  0  0
  8 10  2  0  0  0  0
  8 20  1  0  0  0  0
  9 11  2  0  0  0  0
  9 21  1  0  0  0  0
 10 22  1  0  0  0  0
 11 23  1  0  0  0  0
 12 17  2  0  0  0  0
 12 24  1  0  0  0  0
 13 16  2  0  0  0  0
 13 25  1  0  0  0  0
 14 18  1  0  0  0  0
 14 26  1  0  0  0  0
 15 19  1  0  0  0  0
 15 27  1  0  0  0  0
 16 17  1  0  0  0  0
 17 28  1  0  0  0  0
 18 19  2  0  0  0  0
 18 29  1  0  0  0  0
 19 30  1  0  0  0  0
M  END
> <PUBCHEM_COMPOUND_CID>
13092

> <PUBCHEM_CONFORMER_RMSD>
0.4

> <PUBCHEM_CONFORMER_DIVERSEORDER>
1

> <PUBCHEM_MMFF94_PARTIAL_CHARGES>
26
1 -0.9
10 -0.15
11 -0.15
12 -0.15
13 -0.15
14 -0.15
15 -0.15
16 0.1
17 -0.15
18 -0.15
19 -0.15
20 0.15
21 0.15
22 0.15
23 0.15
24 0.15
25 0.15
26 0.15
27 0.15
28 0.15
29 0.15
30 0.15
31 0.4
32 0.4
8 -0.15
9 -0.15

> <PUBCHEM_EFFECTIVE_ROTOR_COUNT>
0

> <PUBCHEM_PHARMACOPHORE_FEATURES>
6
1 1 cation
1 1 donor
6 2 3 4 6 8 10 rings
6 2 3 5 7 9 11 rings
6 4 6 12 13 16 17 rings
6 5 7 14 15 18 19 rings

> <PUBCHEM_HEAVY_ATOM_COUNT>
19

> <PUBCHEM_ATOM_DEF_STEREO_COUNT>
0

> <PUBCHEM_ATOM_UDEF_STEREO_COUNT>
0

> <PUBCHEM_BOND_DEF_STEREO_COUNT>
0

> <PUBCHEM_BOND_UDEF_STEREO_COUNT>
0

> <PUBCHEM_ISOTOPIC_ATOM_COUNT>
0

> <PUBCHEM_COMPONENT_COUNT>
1

> <PUBCHEM_CACTVS_TAUTO_COUNT>
1

> <PUBCHEM_CONFORMER_ID>
0000332400000001

> <PUBCHEM_MMFF94_ENERGY>
80.2678

> <PUBCHEM_FEATURE_SELFOVERLAP>
30.515

> <PUBCHEM_SHAPE_FINGERPRINT>
10062212 137 18334582330352228247
10616163 171 18336826390229015030
10906281 52 18264468689650910326
10967382 1 18410855498788181191
11132069 177 18409732871662229480
11471102 20 18410577288007682134
11578080 2 16880486865367213859
12011746 2 18409730672654811405
12107183 9 17690562309011992648
12236239 1 17846499231904662482
12403259 226 18264776472035954337
12403259 415 18410582786025399969
12403814 3 17632580465443815693
13140716 1 18266458702607472552
13288520 33 18408319995147103148
13862211 1 18410860966318758090
14115302 16 18201991106393091316
14790565 3 18411693309595804076
15042514 8 18195242218566366691
15099037 51 18410856564172205295
15196674 1 18410574010926633606
15375358 24 18333448750817013574
15442244 35 18410293618307977417
15536298 74 18335139786620211840
1601671 61 18409728473985106876
16945 1 18122342376581560743
17804303 29 18409445856330941045
1813 80 17275385413063092532
18186145 218 17989213646087276143
18522853 276 18407759239716358681
19141452 34 18334295340431846239
19591789 44 18267586986289891815
200 152 17967535670618120499
20510252 161 18188771772307710681
20645477 70 18262518212137944398
21029758 11 18334016094617008681
21267235 1 18410846651240226794
21279426 13 18194119839767043111
21421861 104 17844537806277232570
221490 88 18197491835876581147
23402539 116 18261399944086773719
23463225 33 18411981368630213852
23559900 14 18261397693983411720
23622692 118 17897738556713174943
3004659 81 18272085050611967558
335352 9 18410856581135770964
34934 24 18410579483200440826
350125 39 18410571791241243241
3545911 37 18409446990027948043
4214541 1 18410856564214500609
4340502 62 16486967427369130257
474 4 17273971342473471060
495365 180 17386300813225823904
5104073 3 18410856551060411946
69090 78 18407762529930469159
7364860 26 18263646152191136712
77779 3 18411417310585792583
8809292 202 18271804558301721867
9709674 26 18409161091362159855
9981440 41 17261873248218694896

> <PUBCHEM_SHAPE_MULTIPOLES>
386.03
9.91
2.07
0.61
2.13
0.04
0
-0.27
0
-0.37
0
-0.02
0
0

> <PUBCHEM_SHAPE_SELFOVERLAP>
885.628

> <PUBCHEM_SHAPE_VOLUME>
196.7

> <PUBCHEM_COORDINATE_TYPE>
2
5
10

$$$$

