7846926
  -OEChem-06241222462D

 38 40  0     0  0  0  0  0  0999 V2000
   10.7619   -2.6651    0.0000 Cl  0  0  0  0  0  0  0  0  0  0  0  0
    4.6783    2.4698    0.0000 S   0  0  0  0  0  0  0  0  0  0  0  0
    8.2619   -0.0670    0.0000 O   0  0  0  0  0  0  0  0  0  0  0  0
    8.2619    1.6651    0.0000 O   0  0  0  0  0  0  0  0  0  0  0  0
    9.2619   -1.7990    0.0000 O   0  0  0  0  0  0  0  0  0  0  0  0
    4.6783    0.8603    0.0000 N   0  0  0  0  0  0  0  0  0  0  0  0
    6.2619    1.6651    0.0000 C   0  0  0  0  0  0  0  0  0  0  0  0
    6.7619    0.7990    0.0000 C   0  0  0  0  0  0  0  0  0  0  0  0
    5.2619    1.6651    0.0000 C   0  0  0  0  0  0  0  0  0  0  0  0
    3.7320    2.1651    0.0000 C   0  0  0  0  0  0  0  0  0  0  0  0
    3.7320    1.1651    0.0000 C   0  0  0  0  0  0  0  0  0  0  0  0
    7.7619    0.7990    0.0000 C   0  0  0  0  0  0  0  0  0  0  0  0
    2.8660    2.6651    0.0000 C   0  0  0  0  0  0  0  0  0  0  0  0
    2.8660    0.6651    0.0000 C   0  0  0  0  0  0  0  0  0  0  0  0
    9.2619   -0.0670    0.0000 C   0  0  0  0  0  0  0  0  0  0  0  0
    2.0000    2.1651    0.0000 C   0  0  0  0  0  0  0  0  0  0  0  0
    2.0000    1.1651    0.0000 C   0  0  0  0  0  0  0  0  0  0  0  0
   10.7619   -0.9330    0.0000 C   0  0  0  0  0  0  0  0  0  0  0  0
    9.7619   -0.9330    0.0000 C   0  0  0  0  0  0  0  0  0  0  0  0
   11.2619   -1.7990    0.0000 C   0  0  0  0  0  0  0  0  0  0  0  0
   11.2619   -0.0670    0.0000 C   0  0  0  0  0  0  0  0  0  0  0  0
   12.2619   -1.7990    0.0000 C   0  0  0  0  0  0  0  0  0  0  0  0
   12.2619   -0.0670    0.0000 C   0  0  0  0  0  0  0  0  0  0  0  0
   12.7619   -0.9330    0.0000 C   0  0  0  0  0  0  0  0  0  0  0  0
    6.8445    1.8771    0.0000 H   0  0  0  0  0  0  0  0  0  0  0  0
    6.1542    2.2756    0.0000 H   0  0  0  0  0  0  0  0  0  0  0  0
    6.1793    0.5870    0.0000 H   0  0  0  0  0  0  0  0  0  0  0  0
    6.8695    0.1885    0.0000 H   0  0  0  0  0  0  0  0  0  0  0  0
    2.8660    3.2851    0.0000 H   0  0  0  0  0  0  0  0  0  0  0  0
    2.8660    0.0451    0.0000 H   0  0  0  0  0  0  0  0  0  0  0  0
    9.8445    0.1451    0.0000 H   0  0  0  0  0  0  0  0  0  0  0  0
    9.1542    0.5436    0.0000 H   0  0  0  0  0  0  0  0  0  0  0  0
    1.4631    2.4751    0.0000 H   0  0  0  0  0  0  0  0  0  0  0  0
    1.4631    0.8551    0.0000 H   0  0  0  0  0  0  0  0  0  0  0  0
   10.9519    0.4699    0.0000 H   0  0  0  0  0  0  0  0  0  0  0  0
   12.5719   -2.3360    0.0000 H   0  0  0  0  0  0  0  0  0  0  0  0
   12.5719    0.4699    0.0000 H   0  0  0  0  0  0  0  0  0  0  0  0
   13.3819   -0.9330    0.0000 H   0  0  0  0  0  0  0  0  0  0  0  0
  1 20  1  0  0  0  0
  2  9  1  0  0  0  0
  2 10  1  0  0  0  0
  3 12  1  0  0  0  0
  3 15  1  0  0  0  0
  4 12  2  0  0  0  0
  5 19  2  0  0  0  0
  6  9  2  0  0  0  0
  6 11  1  0  0  0  0
  7  8  1  0  0  0  0
  7  9  1  0  0  0  0
  7 25  1  0  0  0  0
  7 26  1  0  0  0  0
  8 12  1  0  0  0  0
  8 27  1  0  0  0  0
  8 28  1  0  0  0  0
 10 11  1  0  0  0  0
 10 13  2  0  0  0  0
 11 14  2  0  0  0  0
 13 16  1  0  0  0  0
 13 29  1  0  0  0  0
 14 17  1  0  0  0  0
 14 30  1  0  0  0  0
 15 19  1  0  0  0  0
 15 31  1  0  0  0  0
 15 32  1  0  0  0  0
 16 17  2  0  0  0  0
 16 33  1  0  0  0  0
 17 34  1  0  0  0  0
 18 19  1  0  0  0  0
 18 20  1  0  0  0  0
 18 21  2  0  0  0  0
 20 22  2  0  0  0  0
 21 23  1  0  0  0  0
 21 35  1  0  0  0  0
 22 24  1  0  0  0  0
 22 36  1  0  0  0  0
 23 24  2  0  0  0  0
 23 37  1  0  0  0  0
 24 38  1  0  0  0  0
M  END
> <PUBCHEM_COMPOUND_CID>
7846926

> <PUBCHEM_COMPOUND_CANONICALIZED>
1

> <PUBCHEM_CACTVS_COMPLEXITY>
462

> <PUBCHEM_CACTVS_HBOND_ACCEPTOR>
5

> <PUBCHEM_CACTVS_HBOND_DONOR>
0

> <PUBCHEM_CACTVS_ROTATABLE_BOND>
7

> <PUBCHEM_CACTVS_SUBSKEYS>
AAADccB6MABEAAAAAAAAAAAAAAAAAWAAAAAwYAAAAAAAAFgB9AAAHgYAAAAADA6h3iIwybIIFAisA6TyTAKD8KBlDzhImD1wZtgIILLhl5WGIQhkwAHozYe8yKCOAAAAAAABAQAAAAAAAAICAAAAAAAAAA==

> <PUBCHEM_IUPAC_OPENEYE_NAME>
[2-(2-chlorophenyl)-2-oxo-ethyl] 3-(1,3-benzothiazol-2-yl)propanoate

> <PUBCHEM_IUPAC_CAS_NAME>
3-(1,3-benzothiazol-2-yl)propanoic acid [2-(2-chlorophenyl)-2-oxoethyl] ester

> <PUBCHEM_IUPAC_NAME>
[2-(2-chlorophenyl)-2-oxoethyl] 3-(1,3-benzothiazol-2-yl)propanoate

> <PUBCHEM_IUPAC_SYSTEMATIC_NAME>
[2-(2-chlorophenyl)-2-oxidanylidene-ethyl] 3-(1,3-benzothiazol-2-yl)propanoate

> <PUBCHEM_IUPAC_TRADITIONAL_NAME>
3-(1,3-benzothiazol-2-yl)propionic acid [2-(2-chlorophenyl)-2-keto-ethyl] ester

> <PUBCHEM_IUPAC_INCHI>
InChI=1S/C18H14ClNO3S/c19-13-6-2-1-5-12(13)15(21)11-23-18(22)10-9-17-20-14-7-3-4-8-16(14)24-17/h1-8H,9-11H2

> <PUBCHEM_IUPAC_INCHIKEY>
WEUVQHRXHNLUET-UHFFFAOYSA-N

> <PUBCHEM_XLOGP3_AA>
4.5

> <PUBCHEM_EXACT_MASS>
359.038292

> <PUBCHEM_MOLECULAR_FORMULA>
C18H14ClNO3S

> <PUBCHEM_MOLECULAR_WEIGHT>
359.82666

> <PUBCHEM_OPENEYE_CAN_SMILES>
C1=CC=C(C(=C1)C(=O)COC(=O)CCC2=NC3=CC=CC=C3S2)Cl

> <PUBCHEM_OPENEYE_ISO_SMILES>
C1=CC=C(C(=C1)C(=O)COC(=O)CCC2=NC3=CC=CC=C3S2)Cl

> <PUBCHEM_CACTVS_TPSA>
84.5

> <PUBCHEM_MONOISOTOPIC_WEIGHT>
359.038292

> <PUBCHEM_TOTAL_CHARGE>
0

> <PUBCHEM_HEAVY_ATOM_COUNT>
24

> <PUBCHEM_ATOM_DEF_STEREO_COUNT>
0

> <PUBCHEM_ATOM_UDEF_STEREO_COUNT>
0

> <PUBCHEM_BOND_DEF_STEREO_COUNT>
0

> <PUBCHEM_BOND_UDEF_STEREO_COUNT>
0

> <PUBCHEM_ISOTOPIC_ATOM_COUNT>
0

> <PUBCHEM_COMPONENT_COUNT>
1

> <PUBCHEM_CACTVS_TAUTO_COUNT>
4

> <PUBCHEM_COORDINATE_TYPE>
1
5
255

> <PUBCHEM_BONDANNOTATIONS>
10  11  8
10  13  8
11  14  8
13  16  8
14  17  8
16  17  8
18  20  8
18  21  8
2  10  8
2  9  8
20  22  8
21  23  8
22  24  8
23  24  8
6  11  8
6  9  8

$$$$

