854071
  -OEChem-06241222473D

 31 31  0     1  0  0  0  0  0999 V2000
   -1.3216   -0.5552   -0.0218 O   0  0  0  0  0  0  0  0  0  0  0  0
   -0.7464    1.6631    0.0661 O   0  0  0  0  0  0  0  0  0  0  0  0
    0.8842    0.0286   -0.0060 N   0  0  0  0  0  0  0  0  0  0  0  0
    4.4761    0.5107    0.1412 N   0  0  0  0  0  0  0  0  0  0  0  0
    3.2059    0.0312   -0.3701 C   0  0  1  0  0  0  0  0  0  0  0  0
    2.7998   -1.3228    0.2154 C   0  0  0  0  0  0  0  0  0  0  0  0
    2.0320    0.9253    0.0188 C   0  0  0  0  0  0  0  0  0  0  0  0
    1.3028   -1.3682   -0.0632 C   0  0  0  0  0  0  0  0  0  0  0  0
   -2.7048   -0.1851   -0.0039 C   0  0  0  0  0  0  0  0  0  0  0  0
   -0.4242    0.4781    0.0178 C   0  0  0  0  0  0  0  0  0  0  0  0
   -2.9898    0.6901   -1.2235 C   0  0  0  0  0  0  0  0  0  0  0  0
   -3.5261   -1.4713   -0.0616 C   0  0  0  0  0  0  0  0  0  0  0  0
   -2.9880    0.5756    1.2907 C   0  0  0  0  0  0  0  0  0  0  0  0
    3.2602   -0.0521   -1.4628 H   0  0  0  0  0  0  0  0  0  0  0  0
    2.9726   -1.3477    1.2992 H   0  0  0  0  0  0  0  0  0  0  0  0
    3.3359   -2.1643   -0.2334 H   0  0  0  0  0  0  0  0  0  0  0  0
    2.1161    1.3162    1.0399 H   0  0  0  0  0  0  0  0  0  0  0  0
    1.8835    1.7666   -0.6656 H   0  0  0  0  0  0  0  0  0  0  0  0
    1.0897   -1.7398   -1.0714 H   0  0  0  0  0  0  0  0  0  0  0  0
    0.7512   -1.9713    0.6639 H   0  0  0  0  0  0  0  0  0  0  0  0
    4.4428    0.5736    1.1581 H   0  0  0  0  0  0  0  0  0  0  0  0
    4.6428    1.4594   -0.1925 H   0  0  0  0  0  0  0  0  0  0  0  0
   -2.5219    0.2742   -2.1234 H   0  0  0  0  0  0  0  0  0  0  0  0
   -4.0696    0.7513   -1.4053 H   0  0  0  0  0  0  0  0  0  0  0  0
   -2.6505    1.7249   -1.1316 H   0  0  0  0  0  0  0  0  0  0  0  0
   -3.2869   -2.1229    0.7866 H   0  0  0  0  0  0  0  0  0  0  0  0
   -3.2896   -2.0424   -0.9667 H   0  0  0  0  0  0  0  0  0  0  0  0
   -4.6021   -1.2695   -0.0508 H   0  0  0  0  0  0  0  0  0  0  0  0
   -2.6323    1.6088    1.2999 H   0  0  0  0  0  0  0  0  0  0  0  0
   -4.0681    0.6340    1.4712 H   0  0  0  0  0  0  0  0  0  0  0  0
   -2.5315    0.0701    2.1498 H   0  0  0  0  0  0  0  0  0  0  0  0
  1  9  1  0  0  0  0
  1 10  1  0  0  0  0
  2 10  2  0  0  0  0
  3  7  1  0  0  0  0
  3  8  1  0  0  0  0
  3 10  1  0  0  0  0
  4  5  1  0  0  0  0
  4 21  1  0  0  0  0
  4 22  1  0  0  0  0
  5  6  1  0  0  0  0
  5  7  1  0  0  0  0
  5 14  1  0  0  0  0
  6  8  1  0  0  0  0
  6 15  1  0  0  0  0
  6 16  1  0  0  0  0
  7 17  1  0  0  0  0
  7 18  1  0  0  0  0
  8 19  1  0  0  0  0
  8 20  1  0  0  0  0
  9 11  1  0  0  0  0
  9 12  1  0  0  0  0
  9 13  1  0  0  0  0
 11 23  1  0  0  0  0
 11 24  1  0  0  0  0
 11 25  1  0  0  0  0
 12 26  1  0  0  0  0
 12 27  1  0  0  0  0
 12 28  1  0  0  0  0
 13 29  1  0  0  0  0
 13 30  1  0  0  0  0
 13 31  1  0  0  0  0
M  END
> <PUBCHEM_COMPOUND_CID>
854071

> <PUBCHEM_CONFORMER_RMSD>
0.6

> <PUBCHEM_CONFORMER_DIVERSEORDER>
1
10
5
8
11
3
15
16
13
14
12
9
17
2
4
7
6

> <PUBCHEM_MMFF94_PARTIAL_CHARGES>
11
1 -0.43
10 0.78
2 -0.57
21 0.36
22 0.36
3 -0.66
4 -0.99
5 0.27
7 0.3
8 0.3
9 0.28

> <PUBCHEM_EFFECTIVE_ROTOR_COUNT>
4

> <PUBCHEM_PHARMACOPHORE_FEATURES>
5
1 2 acceptor
1 4 cation
1 4 donor
4 9 11 12 13 hydrophobe
5 3 5 6 7 8 rings

> <PUBCHEM_HEAVY_ATOM_COUNT>
13

> <PUBCHEM_ATOM_DEF_STEREO_COUNT>
1

> <PUBCHEM_ATOM_UDEF_STEREO_COUNT>
0

> <PUBCHEM_BOND_DEF_STEREO_COUNT>
0

> <PUBCHEM_BOND_UDEF_STEREO_COUNT>
0

> <PUBCHEM_ISOTOPIC_ATOM_COUNT>
0

> <PUBCHEM_COMPONENT_COUNT>
1

> <PUBCHEM_CACTVS_TAUTO_COUNT>
1

> <PUBCHEM_CONFORMER_ID>
000D083700000001

> <PUBCHEM_MMFF94_ENERGY>
27.0393

> <PUBCHEM_FEATURE_SELFOVERLAP>
25.371

> <PUBCHEM_SHAPE_FINGERPRINT>
11062470 55 17346600776709142244
11132069 177 18410296908569411282
12032990 46 18409725140758221302
12932764 1 18131347548495777955
13296908 3 18202001066111195911
14144814 61 18334012817335181834
14325111 11 18411699898138439462
14445660 50 18187072988319648033
15775835 57 18260261966869103026
16945 1 18409449227748133252
17844478 74 17846487150029880993
18186145 218 18411130368405994470
190213 19 18040997340862248198
19107657 46 18408885126770233815
19422 9 18187076269500757430
200 152 18114189605721211015
20201158 50 18343865515214535923
20279233 1 17775565351213386403
20281407 28 18411419526773125657
20281475 54 18334856155723191714
20645477 56 17917436466554492917
20645477 70 18269563899543804446
22485316 2 18412547617303303635
22959321 105 18272374169675254421
23402539 116 16917359125243245126
23402655 69 18411141367511278181
23557571 272 17203897365974376165
23559900 14 18340778147352679090
25610 137 18410571773349009620
3248919 1 17894915173744940967
3312278 4 18410575097795894225
581208 293 18412826876398597458

> <PUBCHEM_SHAPE_MULTIPOLES>
245.83
7.21
1.43
0.87
2.37
0.23
-0.02
0.51
-0.01
-0.15
-0.01
-0.75
-0.15
-0.04

> <PUBCHEM_SHAPE_SELFOVERLAP>
488.139

> <PUBCHEM_SHAPE_VOLUME>
149.2

> <PUBCHEM_COORDINATE_TYPE>
2
5
10

$$$$

