11956
  -OEChem-06261206203D

 23 23  0     1  0  0  0  0  0999 V2000
    1.3574    0.4798    0.2144 N   0  0  3  0  0  0  0  0  0  0  0  0
    2.3037   -0.5807    0.4986 C   0  0  0  0  0  0  0  0  0  0  0  0
   -0.0202    0.1975    0.1064 C   0  0  0  0  0  0  0  0  0  0  0  0
    1.8433    1.8361    0.0564 C   0  0  0  0  0  0  0  0  0  0  0  0
    2.7921   -1.2441   -0.7725 C   0  0  0  0  0  0  0  0  0  0  0  0
   -0.4779   -1.1111    0.2601 C   0  0  0  0  0  0  0  0  0  0  0  0
   -0.9250    1.2268   -0.1532 C   0  0  0  0  0  0  0  0  0  0  0  0
   -1.8405   -1.3905    0.1542 C   0  0  0  0  0  0  0  0  0  0  0  0
   -2.2875    0.9475   -0.2590 C   0  0  0  0  0  0  0  0  0  0  0  0
   -2.7452   -0.3612   -0.1054 C   0  0  0  0  0  0  0  0  0  0  0  0
    3.1805   -0.1507    1.0018 H   0  0  0  0  0  0  0  0  0  0  0  0
    1.9334   -1.3137    1.2232 H   0  0  0  0  0  0  0  0  0  0  0  0
    1.5937    2.2348   -0.9333 H   0  0  0  0  0  0  0  0  0  0  0  0
    2.9351    1.8832    0.1408 H   0  0  0  0  0  0  0  0  0  0  0  0
    1.4377    2.4949    0.8320 H   0  0  0  0  0  0  0  0  0  0  0  0
    1.9757   -1.7278   -1.3176 H   0  0  0  0  0  0  0  0  0  0  0  0
    3.2531   -0.5136   -1.4459 H   0  0  0  0  0  0  0  0  0  0  0  0
    3.5409   -2.0076   -0.5391 H   0  0  0  0  0  0  0  0  0  0  0  0
    0.1718   -1.9588    0.4459 H   0  0  0  0  0  0  0  0  0  0  0  0
   -0.6195    2.2607   -0.2792 H   0  0  0  0  0  0  0  0  0  0  0  0
   -2.1976   -2.4098    0.2698 H   0  0  0  0  0  0  0  0  0  0  0  0
   -2.9928    1.7485   -0.4610 H   0  0  0  0  0  0  0  0  0  0  0  0
   -3.8060   -0.5788   -0.1888 H   0  0  0  0  0  0  0  0  0  0  0  0
  1  2  1  0  0  0  0
  1  3  1  0  0  0  0
  1  4  1  0  0  0  0
  2  5  1  0  0  0  0
  2 11  1  0  0  0  0
  2 12  1  0  0  0  0
  3  6  2  0  0  0  0
  3  7  1  0  0  0  0
  4 13  1  0  0  0  0
  4 14  1  0  0  0  0
  4 15  1  0  0  0  0
  5 16  1  0  0  0  0
  5 17  1  0  0  0  0
  5 18  1  0  0  0  0
  6  8  1  0  0  0  0
  6 19  1  0  0  0  0
  7  9  2  0  0  0  0
  7 20  1  0  0  0  0
  8 10  2  0  0  0  0
  8 21  1  0  0  0  0
  9 10  1  0  0  0  0
  9 22  1  0  0  0  0
 10 23  1  0  0  0  0
M  END
> <PUBCHEM_COMPOUND_CID>
11956

> <PUBCHEM_CONFORMER_RMSD>
0.4

> <PUBCHEM_CONFORMER_DIVERSEORDER>
2
4
3
1

> <PUBCHEM_MMFF94_PARTIAL_CHARGES>
14
1 -0.84
10 -0.15
19 0.15
2 0.37
20 0.15
21 0.15
22 0.15
23 0.15
3 0.1
4 0.37
6 -0.15
7 -0.15
8 -0.15
9 -0.15

> <PUBCHEM_EFFECTIVE_ROTOR_COUNT>
2

> <PUBCHEM_PHARMACOPHORE_FEATURES>
2
1 1 cation
6 3 6 7 8 9 10 rings

> <PUBCHEM_HEAVY_ATOM_COUNT>
10

> <PUBCHEM_ATOM_DEF_STEREO_COUNT>
0

> <PUBCHEM_ATOM_UDEF_STEREO_COUNT>
0

> <PUBCHEM_BOND_DEF_STEREO_COUNT>
0

> <PUBCHEM_BOND_UDEF_STEREO_COUNT>
0

> <PUBCHEM_ISOTOPIC_ATOM_COUNT>
0

> <PUBCHEM_COMPONENT_COUNT>
1

> <PUBCHEM_CACTVS_TAUTO_COUNT>
1

> <PUBCHEM_CONFORMER_ID>
00002EB400000002

> <PUBCHEM_MMFF94_ENERGY>
35.7792

> <PUBCHEM_FEATURE_SELFOVERLAP>
10.148

> <PUBCHEM_SHAPE_FINGERPRINT>
11206711 2 18271532012719957045
12032990 46 18341325622491577019
12524768 44 18340489950166386221
12897270 3 18195525896201352036
12932764 1 17703514367156403233
13380535 21 18268133276038778768
14325111 11 18411704274836864025
16945 1 18341056323335395067
17990270 104 18408323268001983334
19973954 147 18410575058930471281
20201158 50 18334576879848922998
20653085 51 18412257367893088777
20711985 344 17393863477703613662
21040471 1 18269845374762679289
21501502 16 18337671918944090716
23552423 10 18201157659067168602
23559900 14 18120658191921508814
2748010 2 18341618062129098893
29004967 10 17168146745149345090
3248919 1 18261119560079306729
369184 2 15647061481521944739
5084963 1 18261396667179720529
7364860 26 18262236612786374008

> <PUBCHEM_SHAPE_MULTIPOLES>
200.81
4.21
1.75
0.72
0.59
0.32
-0.04
-0.74
-0.46
0.38
-0.06
0.2
-0.09
0.35

> <PUBCHEM_SHAPE_SELFOVERLAP>
403.873

> <PUBCHEM_SHAPE_VOLUME>
118.9

> <PUBCHEM_COORDINATE_TYPE>
2
5
10

$$$$

