4260
  -OEChem-06261200003D

 45 45  0     0  0  0  0  0  0999 V2000
    1.7437   -0.3844    0.7567 O   0  0  0  0  0  0  0  0  0  0  0  0
   -3.4242    0.6438   -0.8709 O   0  0  0  0  0  0  0  0  0  0  0  0
   -4.1283    0.3788    1.3458 O   0  0  0  0  0  0  0  0  0  0  0  0
    5.1249    0.9429    0.1310 N   0  0  0  0  0  0  0  0  0  0  0  0
    0.1209   -2.5937   -0.0481 C   0  0  0  0  0  0  0  0  0  0  0  0
   -0.3676   -1.1827   -0.0508 C   0  0  0  0  0  0  0  0  0  0  0  0
    0.4822   -0.1424    0.3578 C   0  0  0  0  0  0  0  0  0  0  0  0
   -1.6734   -0.9138   -0.4613 C   0  0  0  0  0  0  0  0  0  0  0  0
    0.1257   -3.2159   -1.4565 C   0  0  0  0  0  0  0  0  0  0  0  0
   -0.6767   -3.4893    0.9177 C   0  0  0  0  0  0  0  0  0  0  0  0
   -1.3127    1.4420   -0.0651 C   0  0  0  0  0  0  0  0  0  0  0  0
   -0.0070    1.1731    0.3453 C   0  0  0  0  0  0  0  0  0  0  0  0
   -2.1459    0.3985   -0.4684 C   0  0  0  0  0  0  0  0  0  0  0  0
    2.7280    0.6189    0.5434 C   0  0  0  0  0  0  0  0  0  0  0  0
    4.0809   -0.0528    0.3710 C   0  0  0  0  0  0  0  0  0  0  0  0
   -1.8018    2.8528   -0.0664 C   0  0  0  0  0  0  0  0  0  0  0  0
    4.8114    1.7359   -1.0570 C   0  0  0  0  0  0  0  0  0  0  0  0
    6.4267    0.2933   -0.0169 C   0  0  0  0  0  0  0  0  0  0  0  0
   -4.3684    0.6069    0.1676 C   0  0  0  0  0  0  0  0  0  0  0  0
   -5.7383    0.8879   -0.3750 C   0  0  0  0  0  0  0  0  0  0  0  0
    1.1609   -2.6296    0.2990 H   0  0  0  0  0  0  0  0  0  0  0  0
   -2.3355   -1.7153   -0.7790 H   0  0  0  0  0  0  0  0  0  0  0  0
   -0.8855   -3.3168   -1.8650 H   0  0  0  0  0  0  0  0  0  0  0  0
    0.5755   -4.2146   -1.4331 H   0  0  0  0  0  0  0  0  0  0  0  0
    0.7090   -2.6011   -2.1510 H   0  0  0  0  0  0  0  0  0  0  0  0
   -0.6706   -3.0711    1.9304 H   0  0  0  0  0  0  0  0  0  0  0  0
   -0.2353   -4.4908    0.9652 H   0  0  0  0  0  0  0  0  0  0  0  0
   -1.7210   -3.6011    0.6070 H   0  0  0  0  0  0  0  0  0  0  0  0
    0.6095    2.0023    0.6831 H   0  0  0  0  0  0  0  0  0  0  0  0
    2.4705    1.1777   -0.3617 H   0  0  0  0  0  0  0  0  0  0  0  0
    2.7424    1.2978    1.4044 H   0  0  0  0  0  0  0  0  0  0  0  0
    4.3041   -0.6234    1.2818 H   0  0  0  0  0  0  0  0  0  0  0  0
    4.0263   -0.7894   -0.4423 H   0  0  0  0  0  0  0  0  0  0  0  0
   -0.9786    3.5680    0.0374 H   0  0  0  0  0  0  0  0  0  0  0  0
   -2.3094    3.0876   -1.0080 H   0  0  0  0  0  0  0  0  0  0  0  0
   -2.4953    3.0139    0.7650 H   0  0  0  0  0  0  0  0  0  0  0  0
    5.6735    2.3521   -1.3418 H   0  0  0  0  0  0  0  0  0  0  0  0
    4.5516    1.1152   -1.9224 H   0  0  0  0  0  0  0  0  0  0  0  0
    4.0090    2.4558   -0.8683 H   0  0  0  0  0  0  0  0  0  0  0  0
    6.6743   -0.2823    0.8821 H   0  0  0  0  0  0  0  0  0  0  0  0
    6.4563   -0.3832   -0.8789 H   0  0  0  0  0  0  0  0  0  0  0  0
    7.2195    1.0402   -0.1366 H   0  0  0  0  0  0  0  0  0  0  0  0
   -5.7581    1.8816   -0.8292 H   0  0  0  0  0  0  0  0  0  0  0  0
   -6.4646    0.8626    0.4424 H   0  0  0  0  0  0  0  0  0  0  0  0
   -6.0089    0.1234   -1.1074 H   0  0  0  0  0  0  0  0  0  0  0  0
  1  7  1  0  0  0  0
  1 14  1  0  0  0  0
  2 13  1  0  0  0  0
  2 19  1  0  0  0  0
  3 19  2  0  0  0  0
  4 15  1  0  0  0  0
  4 17  1  0  0  0  0
  4 18  1  0  0  0  0
  5  6  1  0  0  0  0
  5  9  1  0  0  0  0
  5 10  1  0  0  0  0
  5 21  1  0  0  0  0
  6  7  2  0  0  0  0
  6  8  1  0  0  0  0
  7 12  1  0  0  0  0
  8 13  2  0  0  0  0
  8 22  1  0  0  0  0
  9 23  1  0  0  0  0
  9 24  1  0  0  0  0
  9 25  1  0  0  0  0
 10 26  1  0  0  0  0
 10 27  1  0  0  0  0
 10 28  1  0  0  0  0
 11 12  2  0  0  0  0
 11 13  1  0  0  0  0
 11 16  1  0  0  0  0
 12 29  1  0  0  0  0
 14 15  1  0  0  0  0
 14 30  1  0  0  0  0
 14 31  1  0  0  0  0
 15 32  1  0  0  0  0
 15 33  1  0  0  0  0
 16 34  1  0  0  0  0
 16 35  1  0  0  0  0
 16 36  1  0  0  0  0
 17 37  1  0  0  0  0
 17 38  1  0  0  0  0
 17 39  1  0  0  0  0
 18 40  1  0  0  0  0
 18 41  1  0  0  0  0
 18 42  1  0  0  0  0
 19 20  1  0  0  0  0
 20 43  1  0  0  0  0
 20 44  1  0  0  0  0
 20 45  1  0  0  0  0
M  END
> <PUBCHEM_COMPOUND_CID>
4260

> <PUBCHEM_CONFORMER_RMSD>
0.8

> <PUBCHEM_CONFORMER_DIVERSEORDER>
1
74
93
72
82
4
92
46
94
97
61
51
89
81
65
98
78
76
64
77
54
100
88
29
86
70
21
49
31
52
11
19
44
55
79
91
47
101
66
102
32
95
62
90
87
73
71
12
57
23
39
27
84
50
80
34
25
68
85
99
48
6
40
45
37
13
42
10
59
60
33
41
7
96
38
58
28
53
22
56
63
15
20
5
24
14
26
2
3
16
8
30
18
17
83
36
69
43
35
9
67
75

> <PUBCHEM_MMFF94_PARTIAL_CHARGES>
20
1 -0.36
11 -0.14
12 -0.15
13 0.08
14 0.28
15 0.27
16 0.14
17 0.27
18 0.27
19 0.66
2 -0.23
20 0.06
22 0.15
29 0.15
3 -0.57
4 -0.81
5 0.14
6 -0.14
7 0.08
8 -0.15

> <PUBCHEM_EFFECTIVE_ROTOR_COUNT>
7

> <PUBCHEM_PHARMACOPHORE_FEATURES>
5
1 1 acceptor
1 3 acceptor
1 4 cation
3 5 9 10 hydrophobe
6 6 7 8 11 12 13 rings

> <PUBCHEM_HEAVY_ATOM_COUNT>
20

> <PUBCHEM_ATOM_DEF_STEREO_COUNT>
0

> <PUBCHEM_ATOM_UDEF_STEREO_COUNT>
0

> <PUBCHEM_BOND_DEF_STEREO_COUNT>
0

> <PUBCHEM_BOND_UDEF_STEREO_COUNT>
0

> <PUBCHEM_ISOTOPIC_ATOM_COUNT>
0

> <PUBCHEM_COMPONENT_COUNT>
1

> <PUBCHEM_CACTVS_TAUTO_COUNT>
1

> <PUBCHEM_CONFORMER_ID>
000010A400000001

> <PUBCHEM_MMFF94_ENERGY>
63.0685

> <PUBCHEM_FEATURE_SELFOVERLAP>
25.371

> <PUBCHEM_SHAPE_FINGERPRINT>
107951 10 18343860001147187802
10906281 52 18200017560742750753
12173636 292 18410022039426819740
12236239 1 17917713496229385268
12592029 89 18340772662284082986
12788726 201 17968092071036910872
12969540 114 18269573696617089629
13140716 1 18337676300454447561
14790565 3 18410006658880556825
15042514 8 18268989795618181730
16945 1 18263099845467595629
17980427 23 13470402322886766375
19784866 170 18340203089844336825
200 152 7637406215759933848
204376 136 18413108368296857459
20602899 9 17748823003912688354
20645476 183 18131360678427242098
20645477 56 18410859837385840104
20871999 31 18265339404419045014
21236236 1 18337391526763901507
21524375 3 18336552702217597722
22224240 67 18410008824091719723
23227448 37 18199183988978386396
23366157 5 17838896280259635450
23402539 116 18334864887359932940
23557571 272 18192139405241717774
23559900 14 17693669520862654411
283562 15 18336548321578147145
293599 30 18410295808751990808
3759504 43 18272935994321292506
4340502 62 16558750134873399249
458136 41 18261106443370776987
474229 33 18411418414650876587
5486654 2 18411419505667645165
559249 180 18410862040999715386
81228 2 17833015761509448899
81539 233 18340213006633718399

> <PUBCHEM_SHAPE_MULTIPOLES>
389
10.99
3.19
1
9.75
3.05
0.09
-7.29
0.56
-0.78
0.38
-0.09
0.36
-0.2

> <PUBCHEM_SHAPE_SELFOVERLAP>
784.577

> <PUBCHEM_SHAPE_VOLUME>
230.1

> <PUBCHEM_COORDINATE_TYPE>
2
5
10

$$$$

