11866
  -OEChem-06261206133D

 11 11  0     0  0  0  0  0  0999 V2000
    0.7753   -1.4144    0.0002 S   0  0  0  0  0  0  0  0  0  0  0  0
   -2.1644    1.0912    0.0002 O   0  5  0  0  0  0  0  0  0  0  0  0
   -2.0988   -1.1030   -0.0003 O   0  0  0  0  0  0  0  0  0  0  0  0
   -1.5061    0.0128    0.0001 N   0  3  0  0  0  0  0  0  0  0  0  0
   -0.1045    0.0547    0.0000 C   0  0  0  0  0  0  0  0  0  0  0  0
    0.7254    1.1543    0.0000 C   0  0  0  0  0  0  0  0  0  0  0  0
    2.1017    0.7857   -0.0002 C   0  0  0  0  0  0  0  0  0  0  0  0
    2.2713   -0.5813    0.0000 C   0  0  0  0  0  0  0  0  0  0  0  0
    0.3750    2.1790   -0.0001 H   0  0  0  0  0  0  0  0  0  0  0  0
    2.9255    1.4875   -0.0003 H   0  0  0  0  0  0  0  0  0  0  0  0
    3.2022   -1.1306    0.0001 H   0  0  0  0  0  0  0  0  0  0  0  0
  1  5  1  0  0  0  0
  1  8  1  0  0  0  0
  2  4  1  0  0  0  0
  3  4  2  0  0  0  0
  4  5  1  0  0  0  0
  5  6  2  0  0  0  0
  6  7  1  0  0  0  0
  6  9  1  0  0  0  0
  7  8  2  0  0  0  0
  7 10  1  0  0  0  0
  8 11  1  0  0  0  0
M  CHG  2   2  -1   4   1
M  END
> <PUBCHEM_COMPOUND_CID>
11866

> <PUBCHEM_CONFORMER_RMSD>
0.4

> <PUBCHEM_CONFORMER_DIVERSEORDER>
1

> <PUBCHEM_MMFF94_PARTIAL_CHARGES>
11
1 -0.08
10 0.15
11 0.15
2 -0.52
3 -0.52
4 0.96
5 0.12
6 -0.15
7 -0.15
8 -0.11
9 0.15

> <PUBCHEM_EFFECTIVE_ROTOR_COUNT>
1

> <PUBCHEM_PHARMACOPHORE_FEATURES>
4
1 2 acceptor
1 2 anion
1 3 acceptor
5 1 5 6 7 8 rings

> <PUBCHEM_HEAVY_ATOM_COUNT>
8

> <PUBCHEM_ATOM_DEF_STEREO_COUNT>
0

> <PUBCHEM_ATOM_UDEF_STEREO_COUNT>
0

> <PUBCHEM_BOND_DEF_STEREO_COUNT>
0

> <PUBCHEM_BOND_UDEF_STEREO_COUNT>
0

> <PUBCHEM_ISOTOPIC_ATOM_COUNT>
0

> <PUBCHEM_COMPONENT_COUNT>
1

> <PUBCHEM_CACTVS_TAUTO_COUNT>
1

> <PUBCHEM_CONFORMER_ID>
00002E5A00000001

> <PUBCHEM_MMFF94_ENERGY>
11.6753

> <PUBCHEM_FEATURE_SELFOVERLAP>
20.379

> <PUBCHEM_SHAPE_FINGERPRINT>
12897270 3 18339082583941423927
14325111 11 18410856534286840608
14390081 3 18334017185243283208
18185500 45 18337391650969319266
20096714 4 18410012109150856904
21040471 1 18338798897309665796
23552423 10 18271802445298981902
24536 1 18339377308807781581
29004967 10 18411979182755604386
5084963 1 18188485774767003018

> <PUBCHEM_SHAPE_MULTIPOLES>
151.77
3.12
1.46
0.59
0.8
0.17
0
-0.11
0
-0.05
0
-0.08
0.02
0

> <PUBCHEM_SHAPE_SELFOVERLAP>
300.137

> <PUBCHEM_SHAPE_VOLUME>
91.5

> <PUBCHEM_COORDINATE_TYPE>
2
5
10

$$$$

