13224
  -OEChem-06261207552D

 21 22  0     0  0  0  0  0  0999 V2000
    2.8660   -1.3623    0.0000 O   0  0  0  0  0  0  0  0  0  0  0  0
    4.6260   -0.3970    0.0000 N   0  0  0  0  0  0  0  0  0  0  0  0
    3.7320    1.1377    0.0000 C   0  0  0  0  0  0  0  0  0  0  0  0
    3.7320    0.1377    0.0000 C   0  0  0  0  0  0  0  0  0  0  0  0
    4.6260    1.6723    0.0000 C   0  0  0  0  0  0  0  0  0  0  0  0
    5.5321    0.1169    0.0000 C   0  0  0  0  0  0  0  0  0  0  0  0
    2.8660   -0.3623    0.0000 C   0  0  0  0  0  0  0  0  0  0  0  0
    2.8660    1.6377    0.0000 C   0  0  0  0  0  0  0  0  0  0  0  0
    5.5321    1.1585    0.0000 C   0  0  0  0  0  0  0  0  0  0  0  0
    2.0000    0.1377    0.0000 C   0  0  0  0  0  0  0  0  0  0  0  0
    2.0000    1.1377    0.0000 C   0  0  0  0  0  0  0  0  0  0  0  0
    6.3961   -0.3865    0.0000 C   0  0  0  0  0  0  0  0  0  0  0  0
    4.6188    2.2923    0.0000 H   0  0  0  0  0  0  0  0  0  0  0  0
    2.8660    2.2577    0.0000 H   0  0  0  0  0  0  0  0  0  0  0  0
    6.0678    1.4706    0.0000 H   0  0  0  0  0  0  0  0  0  0  0  0
    1.4631   -0.1723    0.0000 H   0  0  0  0  0  0  0  0  0  0  0  0
    1.4631    1.4477    0.0000 H   0  0  0  0  0  0  0  0  0  0  0  0
    6.0841   -0.9222    0.0000 H   0  0  0  0  0  0  0  0  0  0  0  0
    6.9319   -0.6985    0.0000 H   0  0  0  0  0  0  0  0  0  0  0  0
    6.7082    0.1493    0.0000 H   0  0  0  0  0  0  0  0  0  0  0  0
    2.3291   -1.6723    0.0000 H   0  0  0  0  0  0  0  0  0  0  0  0
  1  7  1  0  0  0  0
  1 21  1  0  0  0  0
  2  4  1  0  0  0  0
  2  6  2  0  0  0  0
  3  4  2  0  0  0  0
  3  5  1  0  0  0  0
  3  8  1  0  0  0  0
  4  7  1  0  0  0  0
  5  9  2  0  0  0  0
  5 13  1  0  0  0  0
  6  9  1  0  0  0  0
  6 12  1  0  0  0  0
  7 10  2  0  0  0  0
  8 11  2  0  0  0  0
  8 14  1  0  0  0  0
  9 15  1  0  0  0  0
 10 11  1  0  0  0  0
 10 16  1  0  0  0  0
 11 17  1  0  0  0  0
 12 18  1  0  0  0  0
 12 19  1  0  0  0  0
 12 20  1  0  0  0  0
M  END
> <PUBCHEM_COMPOUND_CID>
13224

> <PUBCHEM_COMPOUND_CANONICALIZED>
1

> <PUBCHEM_CACTVS_COMPLEXITY>
160

> <PUBCHEM_CACTVS_HBOND_ACCEPTOR>
2

> <PUBCHEM_CACTVS_HBOND_DONOR>
1

> <PUBCHEM_CACTVS_ROTATABLE_BOND>
0

> <PUBCHEM_CACTVS_SUBSKEYS>
AAADccByIAAAAAAAAAAAAAAAAAAAAAAAAAA8QAAAAAAAAACx8AAAHgAACAAADAyBngAyxvIIEgCgAyRiRASCgCAhYiAImCA3bJgKJuLSkZOEcAhkwBHY2AeQwLAOAAABAAACEAAAAAIAAAQgAAAAAAAAAA==

> <PUBCHEM_IUPAC_OPENEYE_NAME>
2-methylquinolin-8-ol

> <PUBCHEM_IUPAC_CAS_NAME>
2-methyl-8-quinolinol

> <PUBCHEM_IUPAC_NAME>
2-methylquinolin-8-ol

> <PUBCHEM_IUPAC_SYSTEMATIC_NAME>
2-methylquinolin-8-ol

> <PUBCHEM_IUPAC_TRADITIONAL_NAME>
2-methylquinolin-8-ol

> <PUBCHEM_IUPAC_INCHI>
InChI=1S/C10H9NO/c1-7-5-6-8-3-2-4-9(12)10(8)11-7/h2-6,12H,1H3

> <PUBCHEM_IUPAC_INCHIKEY>
NBYLBWHHTUWMER-UHFFFAOYSA-N

> <PUBCHEM_XLOGP3>
2.3

> <PUBCHEM_EXACT_MASS>
159.068414

> <PUBCHEM_MOLECULAR_FORMULA>
C10H9NO

> <PUBCHEM_MOLECULAR_WEIGHT>
159.18456

> <PUBCHEM_OPENEYE_CAN_SMILES>
CC1=NC2=C(C=CC=C2O)C=C1

> <PUBCHEM_OPENEYE_ISO_SMILES>
CC1=NC2=C(C=CC=C2O)C=C1

> <PUBCHEM_CACTVS_TPSA>
33.1

> <PUBCHEM_MONOISOTOPIC_WEIGHT>
159.068414

> <PUBCHEM_TOTAL_CHARGE>
0

> <PUBCHEM_HEAVY_ATOM_COUNT>
12

> <PUBCHEM_ATOM_DEF_STEREO_COUNT>
0

> <PUBCHEM_ATOM_UDEF_STEREO_COUNT>
0

> <PUBCHEM_BOND_DEF_STEREO_COUNT>
0

> <PUBCHEM_BOND_UDEF_STEREO_COUNT>
0

> <PUBCHEM_ISOTOPIC_ATOM_COUNT>
0

> <PUBCHEM_COMPONENT_COUNT>
1

> <PUBCHEM_CACTVS_TAUTO_COUNT>
2

> <PUBCHEM_COORDINATE_TYPE>
1
5
255

> <PUBCHEM_BONDANNOTATIONS>
10  11  8
2  4  8
2  6  8
3  4  8
3  5  8
3  8  8
4  7  8
5  9  8
6  9  8
7  10  8
8  11  8

$$$$

