3486
  -OEChem-06251223263D

 40 39  0     1  0  0  0  0  0999 V2000
   -1.3660   -3.2961   -0.0872 S   0  0  0  0  0  0  0  0  0  0  0  0
   -2.5377   -4.1883   -0.7878 O   0  0  0  0  0  0  0  0  0  0  0  0
    0.9057    0.3679    1.8347 O   0  0  0  0  0  0  0  0  0  0  0  0
   -1.5680    1.4775   -1.0869 O   0  0  0  0  0  0  0  0  0  0  0  0
   -1.4126   -3.5068    1.3475 O   0  0  0  0  0  0  0  0  0  0  0  0
   -0.1376   -3.4640   -0.8412 O   0  0  0  0  0  0  0  0  0  0  0  0
    4.8189    0.3176   -2.0032 O   0  0  0  0  0  0  0  0  0  0  0  0
    5.4380    2.2145   -0.9263 O   0  0  0  0  0  0  0  0  0  0  0  0
   -5.0977    0.9924   -0.5848 O   0  0  0  0  0  0  0  0  0  0  0  0
   -5.6846    3.1674   -0.3157 O   0  0  0  0  0  0  0  0  0  0  0  0
    0.1060   -0.5314   -0.1521 N   0  0  0  0  0  0  0  0  0  0  0  0
   -2.8881    1.1671    0.7979 N   0  0  0  0  0  0  0  0  0  0  0  0
    5.9769    0.7147    1.3226 N   0  0  0  0  0  0  0  0  0  0  0  0
   -1.2927   -0.5531    0.2085 C   0  0  2  0  0  0  0  0  0  0  0  0
   -2.0422   -1.7050   -0.4527 C   0  0  0  0  0  0  0  0  0  0  0  0
    2.4707   -0.1512    0.0615 C   0  0  0  0  0  0  0  0  0  0  0  0
    3.5780    0.3561    0.9877 C   0  0  0  0  0  0  0  0  0  0  0  0
    1.0957   -0.0674    0.7022 C   0  0  0  0  0  0  0  0  0  0  0  0
    4.9770    0.2085    0.3792 C   0  0  1  0  0  0  0  0  0  0  0  0
   -1.9045    0.8080   -0.1124 C   0  0  0  0  0  0  0  0  0  0  0  0
    5.1175    1.0331   -0.8876 C   0  0  0  0  0  0  0  0  0  0  0  0
   -3.6460    2.3940    0.7041 C   0  0  0  0  0  0  0  0  0  0  0  0
   -4.9066    2.2444   -0.1081 C   0  0  0  0  0  0  0  0  0  0  0  0
   -1.3339   -0.6945    1.2965 H   0  0  0  0  0  0  0  0  0  0  0  0
   -2.0389   -1.5960   -1.5433 H   0  0  0  0  0  0  0  0  0  0  0  0
   -3.0855   -1.7085   -0.1179 H   0  0  0  0  0  0  0  0  0  0  0  0
    2.6589   -1.1965   -0.2107 H   0  0  0  0  0  0  0  0  0  0  0  0
    2.4373    0.4420   -0.8591 H   0  0  0  0  0  0  0  0  0  0  0  0
    3.3784    1.4095    1.2283 H   0  0  0  0  0  0  0  0  0  0  0  0
    3.5335   -0.1936    1.9372 H   0  0  0  0  0  0  0  0  0  0  0  0
    0.3600   -0.8089   -1.0961 H   0  0  0  0  0  0  0  0  0  0  0  0
    5.2084   -0.8385    0.1559 H   0  0  0  0  0  0  0  0  0  0  0  0
   -3.1225    0.5300    1.5536 H   0  0  0  0  0  0  0  0  0  0  0  0
    5.9304    0.1759    2.1870 H   0  0  0  0  0  0  0  0  0  0  0  0
    5.7535    1.6752    1.5829 H   0  0  0  0  0  0  0  0  0  0  0  0
   -3.0236    3.1660    0.2422 H   0  0  0  0  0  0  0  0  0  0  0  0
   -3.9181    2.6855    1.7223 H   0  0  0  0  0  0  0  0  0  0  0  0
   -3.4019   -4.2022   -0.3131 H   0  0  0  0  0  0  0  0  0  0  0  0
    4.8982    0.8594   -2.8170 H   0  0  0  0  0  0  0  0  0  0  0  0
   -5.9238    0.9209   -1.1089 H   0  0  0  0  0  0  0  0  0  0  0  0
  1  2  1  0  0  0  0
  1  5  2  0  0  0  0
  1  6  2  0  0  0  0
  1 15  1  0  0  0  0
  2 38  1  0  0  0  0
  3 18  2  0  0  0  0
  4 20  2  0  0  0  0
  7 21  1  0  0  0  0
  7 39  1  0  0  0  0
  8 21  2  0  0  0  0
  9 23  1  0  0  0  0
  9 40  1  0  0  0  0
 10 23  2  0  0  0  0
 11 14  1  0  0  0  0
 11 18  1  0  0  0  0
 11 31  1  0  0  0  0
 12 20  1  0  0  0  0
 12 22  1  0  0  0  0
 12 33  1  0  0  0  0
 13 19  1  0  0  0  0
 13 34  1  0  0  0  0
 13 35  1  0  0  0  0
 14 15  1  0  0  0  0
 14 20  1  0  0  0  0
 14 24  1  0  0  0  0
 15 25  1  0  0  0  0
 15 26  1  0  0  0  0
 16 17  1  0  0  0  0
 16 18  1  0  0  0  0
 16 27  1  0  0  0  0
 16 28  1  0  0  0  0
 17 19  1  0  0  0  0
 17 29  1  0  0  0  0
 17 30  1  0  0  0  0
 19 21  1  0  0  0  0
 19 32  1  0  0  0  0
 22 23  1  0  0  0  0
 22 36  1  0  0  0  0
 22 37  1  0  0  0  0
M  END
> <PUBCHEM_COMPOUND_CID>
3486

> <PUBCHEM_CONFORMER_RMSD>
1

> <PUBCHEM_CONFORMER_DIVERSEORDER>
26
84
128
45
71
171
148
55
19
91
109
80
22
102
7
163
17
185
119
143
134
108
53
116
46
169
186
132
182
29
192
160
184
77
161
98
70
149
189
12
101
11
21
159
114
158
23
103
92
129
154
15
78
157
174
187
62
85
123
172
90
86
25
54
135
63
180
179
83
193
117
4
122
79
33
170
165
175
166
40
51
115
139
110
177
76
97
9
105
50
138
155
142
168
14
153
167
152
34
191
43
59
164
68
24
5
188
13
107
27
57
8
111
127
137
66
58
20
6
162
181
95
44
146
93
48
104
37
18
81
41
120
64
156
89
176
100
121
94
141
106
42
75
118
178
125
35
32
60
87
147
130
133
1
126
65
67
183
49
124
61
140
150
190
145
99
2
31
56
82
10
47
131
173
112
52
69
38
72
136
88
144
151
36
3
113
39
73
74
28
16
30
96

> <PUBCHEM_MMFF94_PARTIAL_CHARGES>
29
1 1.38
10 -0.57
11 -0.73
12 -0.73
13 -0.99
14 0.36
15 0.11
16 0.06
18 0.57
19 0.33
2 -0.68
20 0.57
21 0.66
22 0.36
23 0.66
3 -0.57
31 0.37
33 0.37
34 0.36
35 0.36
38 0.5
39 0.5
4 -0.57
40 0.5
5 -0.65
6 -0.65
7 -0.65
8 -0.57
9 -0.65

> <PUBCHEM_EFFECTIVE_ROTOR_COUNT>
12

> <PUBCHEM_PHARMACOPHORE_FEATURES>
16
1 10 acceptor
1 11 donor
1 12 donor
1 13 cation
1 13 donor
1 2 acceptor
1 3 acceptor
1 4 acceptor
1 5 acceptor
1 6 acceptor
1 7 acceptor
1 8 acceptor
1 9 acceptor
3 7 8 21 anion
3 9 10 23 anion
4 1 2 5 6 anion

> <PUBCHEM_HEAVY_ATOM_COUNT>
23

> <PUBCHEM_ATOM_DEF_STEREO_COUNT>
0

> <PUBCHEM_ATOM_UDEF_STEREO_COUNT>
2

> <PUBCHEM_BOND_DEF_STEREO_COUNT>
0

> <PUBCHEM_BOND_UDEF_STEREO_COUNT>
0

> <PUBCHEM_ISOTOPIC_ATOM_COUNT>
0

> <PUBCHEM_COMPONENT_COUNT>
1

> <PUBCHEM_CACTVS_TAUTO_COUNT>
4

> <PUBCHEM_CONFORMER_ID>
00000D9E0000001A

> <PUBCHEM_MMFF94_ENERGY>
28.8549

> <PUBCHEM_FEATURE_SELFOVERLAP>
81.363

> <PUBCHEM_SHAPE_FINGERPRINT>
105312 117 18409450297268823855
107951 10 18334009514526788007
12107183 9 18269567207591561530
12390115 104 18261382378219282705
12616971 3 17632583738905402624
12788726 201 18197788699827401291
12895836 83 18411697681962169272
12895837 130 18057308514858080348
14251757 5 18335976485173678072
14790565 3 18339078314818544629
15842332 3 17916327003466321914
17539 30 18117849802357331175
17980427 23 17632566163851631501
18785283 64 17981610677621089059
20554085 129 17825133590340881067
21120745 212 17981875350927830679
23366157 5 17691402336465344851
23557571 272 18188481377137450724
23559900 14 18114449146632309118
23598288 3 18199741453852466403
268830 7 17059781014548237160
3472631 163 18341324527233017852
3759504 43 18412262843986856155
4058900 60 18194112148045605737
56616090 163 18335129925670848974
77188 2 17545607747494855223

> <PUBCHEM_SHAPE_MULTIPOLES>
409.41
12.7
4.26
1.29
10.49
5
-0.02
-13.16
1.84
-6.91
0.58
1.33
-0.03
-0.48

> <PUBCHEM_SHAPE_SELFOVERLAP>
796.081

> <PUBCHEM_SHAPE_VOLUME>
245.3

> <PUBCHEM_COORDINATE_TYPE>
2
5
10

$$$$

