47205780
  -OEChem-06241223003D

 38 38  0     1  0  0  0  0  0999 V2000
    3.5731    3.5311    0.0388 F   0  0  0  0  0  0  0  0  0  0  0  0
   -0.4824   -1.6522   -1.5757 O   0  0  0  0  0  0  0  0  0  0  0  0
   -2.5153    0.4209    1.2459 O   0  0  0  0  0  0  0  0  0  0  0  0
    0.6496   -2.0561    0.4136 N   0  0  0  0  0  0  0  0  0  0  0  0
   -2.8333   -1.4273   -0.1222 N   0  0  0  0  0  0  0  0  0  0  0  0
    1.9935   -1.8845   -0.0898 C   0  0  1  0  0  0  0  0  0  0  0  0
    2.4176   -0.4321   -0.0549 C   0  0  0  0  0  0  0  0  0  0  0  0
    2.9583   -2.7952    0.6668 C   0  0  0  0  0  0  0  0  0  0  0  0
   -1.7445   -2.2143    0.4062 C   0  0  0  0  0  0  0  0  0  0  0  0
   -0.4823   -1.9243   -0.3778 C   0  0  0  0  0  0  0  0  0  0  0  0
   -4.3154    0.4496   -0.3729 C   0  0  0  0  0  0  0  0  0  0  0  0
    1.9727    0.4002    0.9725 C   0  0  0  0  0  0  0  0  0  0  0  0
    3.2531    0.0746   -1.0505 C   0  0  0  0  0  0  0  0  0  0  0  0
   -4.6559    1.8477    0.1348 C   0  0  0  0  0  0  0  0  0  0  0  0
   -3.1278   -0.1574    0.3523 C   0  0  0  0  0  0  0  0  0  0  0  0
    2.3635    1.7389    1.0045 C   0  0  0  0  0  0  0  0  0  0  0  0
    3.6436    1.4133   -1.0186 C   0  0  0  0  0  0  0  0  0  0  0  0
    3.1990    2.2454    0.0088 C   0  0  0  0  0  0  0  0  0  0  0  0
   -5.8670    2.4217   -0.5820 C   0  0  0  0  0  0  0  0  0  0  0  0
    1.9783   -2.2083   -1.1390 H   0  0  0  0  0  0  0  0  0  0  0  0
    0.5378   -2.2463    1.4056 H   0  0  0  0  0  0  0  0  0  0  0  0
    3.0030   -2.5346    1.7307 H   0  0  0  0  0  0  0  0  0  0  0  0
    2.6417   -3.8416    0.5962 H   0  0  0  0  0  0  0  0  0  0  0  0
    3.9733   -2.7187    0.2621 H   0  0  0  0  0  0  0  0  0  0  0  0
   -1.6147   -1.9890    1.4693 H   0  0  0  0  0  0  0  0  0  0  0  0
   -1.9975   -3.2721    0.2890 H   0  0  0  0  0  0  0  0  0  0  0  0
   -4.0820    0.4865   -1.4437 H   0  0  0  0  0  0  0  0  0  0  0  0
   -5.1751   -0.2177   -0.2377 H   0  0  0  0  0  0  0  0  0  0  0  0
    1.3332    0.0308    1.7692 H   0  0  0  0  0  0  0  0  0  0  0  0
    3.6079   -0.5636   -1.8553 H   0  0  0  0  0  0  0  0  0  0  0  0
   -3.7986    2.5162   -0.0085 H   0  0  0  0  0  0  0  0  0  0  0  0
   -4.8564    1.8163    1.2125 H   0  0  0  0  0  0  0  0  0  0  0  0
   -3.3858   -1.8203   -0.8788 H   0  0  0  0  0  0  0  0  0  0  0  0
    2.0198    2.3865    1.8056 H   0  0  0  0  0  0  0  0  0  0  0  0
    4.2942    1.8081   -1.7934 H   0  0  0  0  0  0  0  0  0  0  0  0
   -5.6856    2.4980   -1.6588 H   0  0  0  0  0  0  0  0  0  0  0  0
   -6.0919    3.4237   -0.2035 H   0  0  0  0  0  0  0  0  0  0  0  0
   -6.7498    1.7935   -0.4255 H   0  0  0  0  0  0  0  0  0  0  0  0
  1 18  1  0  0  0  0
  2 10  2  0  0  0  0
  3 15  2  0  0  0  0
  4  6  1  0  0  0  0
  4 10  1  0  0  0  0
  4 21  1  0  0  0  0
  5  9  1  0  0  0  0
  5 15  1  0  0  0  0
  5 33  1  0  0  0  0
  6  7  1  0  0  0  0
  6  8  1  0  0  0  0
  6 20  1  0  0  0  0
  7 12  2  0  0  0  0
  7 13  1  0  0  0  0
  8 22  1  0  0  0  0
  8 23  1  0  0  0  0
  8 24  1  0  0  0  0
  9 10  1  0  0  0  0
  9 25  1  0  0  0  0
  9 26  1  0  0  0  0
 11 14  1  0  0  0  0
 11 15  1  0  0  0  0
 11 27  1  0  0  0  0
 11 28  1  0  0  0  0
 12 16  1  0  0  0  0
 12 29  1  0  0  0  0
 13 17  2  0  0  0  0
 13 30  1  0  0  0  0
 14 19  1  0  0  0  0
 14 31  1  0  0  0  0
 14 32  1  0  0  0  0
 16 18  2  0  0  0  0
 16 34  1  0  0  0  0
 17 18  1  0  0  0  0
 17 35  1  0  0  0  0
 19 36  1  0  0  0  0
 19 37  1  0  0  0  0
 19 38  1  0  0  0  0
M  END
> <PUBCHEM_COMPOUND_CID>
47205780

> <PUBCHEM_CONFORMER_RMSD>
0.8

> <PUBCHEM_CONFORMER_DIVERSEORDER>
1
26
265
113
167
203
251
218
212
225
133
63
81
224
97
177
48
94
170
57
31
183
196
12
202
33
176
178
288
5
60
149
68
116
15
228
238
58
10
294
303
222
99
287
169
168
21
262
161
122
142
254
240
282
268
8
277
148
121
279
83
125
236
112
78
300
241
84
54
7
61
298
155
135
134
93
259
22
47
18
127
253
153
275
209
107
302
206
14
229
71
230
95
19
56
280
157
260
45
291
188
217
151
306
144
89
293
232
200
79
166
285
235
283
140
249
23
156
181
216
51
105
109
281
214
272
80
159
231
250
62
271
30
187
52
150
73
273
274
284
304
87
39
86
234
199
194
106
276
163
290
110
189
213
115
252
292
35
28
165
171
190
261
137
195
174
204
108
128
65
226
182
227
82
41
247
9
111
44
201
139
70
132
100
186
266
3
286
76
264
198
215
248
40
258
91
98
269
237
211
16
46
164
175
267
289
210
246
34
102
197
145
257
297
243
185
158
205
192
239
72
66
305
162
126
301
256
245
123
223
25
130
152
32
55
77
36
296
136
43
173
4
104
138
154
74
141
64
295
147
244
255
233
219
92
299
120
27
53
131
90
208
17
59
69
220
117
103
13
119
129
207
49
180
146
50
278
38
124
172
118
221
88
2
184
270
160
96
193
191
20
242
24
75
37
42
114
29
179
263
85
11
67
143
101
6

> <PUBCHEM_MMFF94_PARTIAL_CHARGES>
22
1 -0.19
10 0.57
11 0.06
12 -0.15
13 -0.15
15 0.57
16 -0.15
17 -0.15
18 0.19
2 -0.57
21 0.37
29 0.15
3 -0.57
30 0.15
33 0.37
34 0.15
35 0.15
4 -0.73
5 -0.73
6 0.44
7 -0.14
9 0.36

> <PUBCHEM_EFFECTIVE_ROTOR_COUNT>
8

> <PUBCHEM_PHARMACOPHORE_FEATURES>
6
1 19 hydrophobe
1 2 acceptor
1 3 acceptor
1 4 donor
1 5 donor
6 7 12 13 16 17 18 rings

> <PUBCHEM_HEAVY_ATOM_COUNT>
19

> <PUBCHEM_ATOM_DEF_STEREO_COUNT>
0

> <PUBCHEM_ATOM_UDEF_STEREO_COUNT>
1

> <PUBCHEM_BOND_DEF_STEREO_COUNT>
0

> <PUBCHEM_BOND_UDEF_STEREO_COUNT>
0

> <PUBCHEM_ISOTOPIC_ATOM_COUNT>
0

> <PUBCHEM_COMPONENT_COUNT>
1

> <PUBCHEM_CACTVS_TAUTO_COUNT>
4

> <PUBCHEM_CONFORMER_ID>
02D04D9400000001

> <PUBCHEM_MMFF94_ENERGY>
30.5982

> <PUBCHEM_FEATURE_SELFOVERLAP>
30.446

> <PUBCHEM_SHAPE_FINGERPRINT>
10498660 4 18336261245763323361
12173636 292 17979916012754869126
13878862 14 17985850317807440925
13965767 371 17988095408623850220
14123255 52 18339360747445699112
14251764 38 18194682794733577149
14251764 75 18337096896339670057
14466204 15 17766851893341017131
14468879 13 18272928298346358769
14848178 96 18411705413261887789
15238133 3 18342459274787956786
15295992 7 18059567053179768091
15848702 68 18338800129738608518
17134986 127 18335699421133375702
17834072 32 18410570695744897437
17868525 174 17984149424273484859
18335252 114 17979084009318231989
192875 21 17970634201780624563
20621476 13 18409731763635007297
21860390 5 18044092586438191503
21864079 5 18338801104516680555
23559900 14 18264774435842024755
26353 1 15871627029301495127
345986 75 16910331274626537538
4028521 119 18188203178714150769
474 4 18336828718739157635
5312510 48 18194967577051558989
7808743 9 18051692136047736920

> <PUBCHEM_SHAPE_MULTIPOLES>
362.04
10.23
3.69
1.07
14.68
0.83
0.09
8.59
1.2
-2.17
-0.13
-0.35
0.02
0.01

> <PUBCHEM_SHAPE_SELFOVERLAP>
729.81

> <PUBCHEM_SHAPE_VOLUME>
211.9

> <PUBCHEM_COORDINATE_TYPE>
2
5
10

$$$$

