13111
  -OEChem-06261207462D

 67 68  0     1  0  0  0  0  0999 V2000
    5.5388    2.1226    0.0000 N   0  3  3  0  0  0  0  0  0  0  0  0
    4.0000    1.6226    0.0000 C   0  0  0  0  0  0  0  0  0  0  0  0
    4.5878    2.4316    0.0000 C   0  0  0  0  0  0  0  0  0  0  0  0
    4.5878    0.8135    0.0000 C   0  0  0  0  0  0  0  0  0  0  0  0
    5.5388    1.1226    0.0000 C   0  0  0  0  0  0  0  0  0  0  0  0
    3.5000    0.7565    0.0000 C   0  0  0  0  0  0  0  0  0  0  0  0
    3.5000    2.4886    0.0000 C   0  0  0  0  0  0  0  0  0  0  0  0
    6.5388    2.1226    0.0000 C   0  0  0  0  0  0  0  0  0  0  0  0
    2.5000    0.7565    0.0000 C   0  0  0  0  0  0  0  0  0  0  0  0
    2.5000    2.4886    0.0000 C   0  0  0  0  0  0  0  0  0  0  0  0
    5.8479    3.0736    0.0000 C   0  0  0  0  0  0  0  0  0  0  0  0
    2.0000    1.6226    0.0000 C   0  0  0  0  0  0  0  0  0  0  0  0
    7.0388    1.2565    0.0000 C   0  0  0  0  0  0  0  0  0  0  0  0
    8.0388    1.2565    0.0000 C   0  0  0  0  0  0  0  0  0  0  0  0
    8.5388    0.3905    0.0000 C   0  0  0  0  0  0  0  0  0  0  0  0
    9.5388    0.3905    0.0000 C   0  0  0  0  0  0  0  0  0  0  0  0
   10.0388   -0.4755    0.0000 C   0  0  0  0  0  0  0  0  0  0  0  0
   11.0388   -0.4755    0.0000 C   0  0  0  0  0  0  0  0  0  0  0  0
   11.5388   -1.3416    0.0000 C   0  0  0  0  0  0  0  0  0  0  0  0
   12.5388   -1.3416    0.0000 C   0  0  0  0  0  0  0  0  0  0  0  0
   13.0388   -2.2076    0.0000 C   0  0  0  0  0  0  0  0  0  0  0  0
   14.0388   -2.2076    0.0000 C   0  0  0  0  0  0  0  0  0  0  0  0
   14.5388   -3.0736    0.0000 C   0  0  0  0  0  0  0  0  0  0  0  0
    4.8400    2.9980    0.0000 H   0  0  0  0  0  0  0  0  0  0  0  0
    4.0508    2.7416    0.0000 H   0  0  0  0  0  0  0  0  0  0  0  0
    4.0508    0.5035    0.0000 H   0  0  0  0  0  0  0  0  0  0  0  0
    4.8400    0.2471    0.0000 H   0  0  0  0  0  0  0  0  0  0  0  0
    5.6678    0.5161    0.0000 H   0  0  0  0  0  0  0  0  0  0  0  0
    6.1554    1.1874    0.0000 H   0  0  0  0  0  0  0  0  0  0  0  0
    3.3923    0.1459    0.0000 H   0  0  0  0  0  0  0  0  0  0  0  0
    4.0826    0.5445    0.0000 H   0  0  0  0  0  0  0  0  0  0  0  0
    4.0826    2.7006    0.0000 H   0  0  0  0  0  0  0  0  0  0  0  0
    3.3923    3.0992    0.0000 H   0  0  0  0  0  0  0  0  0  0  0  0
    7.1214    2.3346    0.0000 H   0  0  0  0  0  0  0  0  0  0  0  0
    6.4312    2.7331    0.0000 H   0  0  0  0  0  0  0  0  0  0  0  0
    1.9174    0.5445    0.0000 H   0  0  0  0  0  0  0  0  0  0  0  0
    2.6077    0.1459    0.0000 H   0  0  0  0  0  0  0  0  0  0  0  0
    2.6077    3.0992    0.0000 H   0  0  0  0  0  0  0  0  0  0  0  0
    1.9174    2.7006    0.0000 H   0  0  0  0  0  0  0  0  0  0  0  0
    6.4375    2.8820    0.0000 H   0  0  0  0  0  0  0  0  0  0  0  0
    6.0395    3.6633    0.0000 H   0  0  0  0  0  0  0  0  0  0  0  0
    5.2582    3.2652    0.0000 H   0  0  0  0  0  0  0  0  0  0  0  0
    1.5250    2.0211    0.0000 H   0  0  0  0  0  0  0  0  0  0  0  0
    1.5250    1.2240    0.0000 H   0  0  0  0  0  0  0  0  0  0  0  0
    6.4562    1.0445    0.0000 H   0  0  0  0  0  0  0  0  0  0  0  0
    7.1465    0.6459    0.0000 H   0  0  0  0  0  0  0  0  0  0  0  0
    8.6214    1.4686    0.0000 H   0  0  0  0  0  0  0  0  0  0  0  0
    7.9312    1.8671    0.0000 H   0  0  0  0  0  0  0  0  0  0  0  0
    7.9562    0.1784    0.0000 H   0  0  0  0  0  0  0  0  0  0  0  0
    8.6465   -0.2201    0.0000 H   0  0  0  0  0  0  0  0  0  0  0  0
   10.1215    0.6026    0.0000 H   0  0  0  0  0  0  0  0  0  0  0  0
    9.4312    1.0011    0.0000 H   0  0  0  0  0  0  0  0  0  0  0  0
    9.4562   -0.6876    0.0000 H   0  0  0  0  0  0  0  0  0  0  0  0
   10.1465   -1.0861    0.0000 H   0  0  0  0  0  0  0  0  0  0  0  0
   11.6215   -0.2635    0.0000 H   0  0  0  0  0  0  0  0  0  0  0  0
   10.9312    0.1351    0.0000 H   0  0  0  0  0  0  0  0  0  0  0  0
   10.9562   -1.5536    0.0000 H   0  0  0  0  0  0  0  0  0  0  0  0
   11.6465   -1.9521    0.0000 H   0  0  0  0  0  0  0  0  0  0  0  0
   13.1215   -1.1295    0.0000 H   0  0  0  0  0  0  0  0  0  0  0  0
   12.4312   -0.7310    0.0000 H   0  0  0  0  0  0  0  0  0  0  0  0
   12.4562   -2.4196    0.0000 H   0  0  0  0  0  0  0  0  0  0  0  0
   13.1465   -2.8182    0.0000 H   0  0  0  0  0  0  0  0  0  0  0  0
   14.6215   -1.9955    0.0000 H   0  0  0  0  0  0  0  0  0  0  0  0
   13.9312   -1.5970    0.0000 H   0  0  0  0  0  0  0  0  0  0  0  0
   14.0019   -3.3836    0.0000 H   0  0  0  0  0  0  0  0  0  0  0  0
   14.8488   -3.6105    0.0000 H   0  0  0  0  0  0  0  0  0  0  0  0
   15.0758   -2.7636    0.0000 H   0  0  0  0  0  0  0  0  0  0  0  0
  1  3  1  0  0  0  0
  1  5  1  0  0  0  0
  1  8  1  0  0  0  0
  1 11  1  0  0  0  0
  2  3  1  0  0  0  0
  2  4  1  0  0  0  0
  2  6  1  0  0  0  0
  2  7  1  0  0  0  0
  3 24  1  0  0  0  0
  3 25  1  0  0  0  0
  4  5  1  0  0  0  0
  4 26  1  0  0  0  0
  4 27  1  0  0  0  0
  5 28  1  0  0  0  0
  5 29  1  0  0  0  0
  6  9  1  0  0  0  0
  6 30  1  0  0  0  0
  6 31  1  0  0  0  0
  7 10  1  0  0  0  0
  7 32  1  0  0  0  0
  7 33  1  0  0  0  0
  8 13  1  0  0  0  0
  8 34  1  0  0  0  0
  8 35  1  0  0  0  0
  9 12  1  0  0  0  0
  9 36  1  0  0  0  0
  9 37  1  0  0  0  0
 10 12  1  0  0  0  0
 10 38  1  0  0  0  0
 10 39  1  0  0  0  0
 11 40  1  0  0  0  0
 11 41  1  0  0  0  0
 11 42  1  0  0  0  0
 12 43  1  0  0  0  0
 12 44  1  0  0  0  0
 13 14  1  0  0  0  0
 13 45  1  0  0  0  0
 13 46  1  0  0  0  0
 14 15  1  0  0  0  0
 14 47  1  0  0  0  0
 14 48  1  0  0  0  0
 15 16  1  0  0  0  0
 15 49  1  0  0  0  0
 15 50  1  0  0  0  0
 16 17  1  0  0  0  0
 16 51  1  0  0  0  0
 16 52  1  0  0  0  0
 17 18  1  0  0  0  0
 17 53  1  0  0  0  0
 17 54  1  0  0  0  0
 18 19  1  0  0  0  0
 18 55  1  0  0  0  0
 18 56  1  0  0  0  0
 19 20  1  0  0  0  0
 19 57  1  0  0  0  0
 19 58  1  0  0  0  0
 20 21  1  0  0  0  0
 20 59  1  0  0  0  0
 20 60  1  0  0  0  0
 21 22  1  0  0  0  0
 21 61  1  0  0  0  0
 21 62  1  0  0  0  0
 22 23  1  0  0  0  0
 22 63  1  0  0  0  0
 22 64  1  0  0  0  0
 23 65  1  0  0  0  0
 23 66  1  0  0  0  0
 23 67  1  0  0  0  0
M  CHG  1   1   1
M  END
> <PUBCHEM_COMPOUND_CID>
13111

> <PUBCHEM_COMPOUND_CANONICALIZED>
1

> <PUBCHEM_CACTVS_COMPLEXITY>
305

> <PUBCHEM_CACTVS_HBOND_ACCEPTOR>
0

> <PUBCHEM_CACTVS_HBOND_DONOR>
0

> <PUBCHEM_CACTVS_ROTATABLE_BOND>
11

> <PUBCHEM_CACTVS_SUBSKEYS>
AAADcfB6AAAAAAAAAAAAAAAAAAAAAWAAAAAwAAAAAAAAAAAAAAAAHAAAAAAADgDBAAQCAAMAAAAAAAAAAAAAAAAAAAAAAAAIAAAAAAIAgAAEAAAAAACAAAEQgMAPAAAAAAAAAAAAAAAAAAAAAAAAAAAAAA==

> <PUBCHEM_IUPAC_OPENEYE_NAME>
2-dodecyl-2-methyl-2-azoniaspiro[4.5]decane

> <PUBCHEM_IUPAC_CAS_NAME>
2-dodecyl-2-methyl-2-azoniaspiro[4.5]decane

> <PUBCHEM_IUPAC_NAME>
2-dodecyl-2-methyl-2-azoniaspiro[4.5]decane

> <PUBCHEM_IUPAC_SYSTEMATIC_NAME>
2-dodecyl-2-methyl-2-azoniaspiro[4.5]decane

> <PUBCHEM_IUPAC_TRADITIONAL_NAME>
2-lauryl-2-methyl-2-azoniaspiro[4.5]decane

> <PUBCHEM_IUPAC_INCHI>
InChI=1S/C22H44N/c1-3-4-5-6-7-8-9-10-11-15-19-23(2)20-18-22(21-23)16-13-12-14-17-22/h3-21H2,1-2H3/q+1

> <PUBCHEM_IUPAC_INCHIKEY>
OHNVNUKZYQFOSP-UHFFFAOYSA-N

> <PUBCHEM_XLOGP3_AA>
8.2

> <PUBCHEM_EXACT_MASS>
322.347375

> <PUBCHEM_MOLECULAR_FORMULA>
C22H44N+

> <PUBCHEM_MOLECULAR_WEIGHT>
322.59146

> <PUBCHEM_OPENEYE_CAN_SMILES>
CCCCCCCCCCCC[N+]1(CCC2(C1)CCCCC2)C

> <PUBCHEM_OPENEYE_ISO_SMILES>
CCCCCCCCCCCC[N+]1(CCC2(C1)CCCCC2)C

> <PUBCHEM_CACTVS_TPSA>
0

> <PUBCHEM_MONOISOTOPIC_WEIGHT>
322.347375

> <PUBCHEM_TOTAL_CHARGE>
1

> <PUBCHEM_HEAVY_ATOM_COUNT>
23

> <PUBCHEM_ATOM_DEF_STEREO_COUNT>
0

> <PUBCHEM_ATOM_UDEF_STEREO_COUNT>
1

> <PUBCHEM_BOND_DEF_STEREO_COUNT>
0

> <PUBCHEM_BOND_UDEF_STEREO_COUNT>
0

> <PUBCHEM_ISOTOPIC_ATOM_COUNT>
0

> <PUBCHEM_COMPONENT_COUNT>
1

> <PUBCHEM_CACTVS_TAUTO_COUNT>
1

> <PUBCHEM_COORDINATE_TYPE>
1
5
255

> <PUBCHEM_BONDANNOTATIONS>
1  8  3

$$$$

