13243
  -OEChem-06261208023D

 20 20  0     0  0  0  0  0  0999 V2000
    2.3448   -0.0023   -0.8026 O   0  0  0  0  0  0  0  0  0  0  0  0
   -3.7332    1.0986    0.3058 O   0  5  0  0  0  0  0  0  0  0  0  0
   -3.7342   -1.0966    0.3074 O   0  0  0  0  0  0  0  0  0  0  0  0
    2.7258    0.0053    1.5071 O   0  0  0  0  0  0  0  0  0  0  0  0
   -3.1357    0.0006    0.1971 N   0  3  0  0  0  0  0  0  0  0  0  0
    1.0058   -0.0016   -0.5579 C   0  0  0  0  0  0  0  0  0  0  0  0
   -1.7390   -0.0002   -0.0592 C   0  0  0  0  0  0  0  0  0  0  0  0
    0.3198    1.2067   -0.4356 C   0  0  0  0  0  0  0  0  0  0  0  0
    0.3195   -1.2092   -0.4309 C   0  0  0  0  0  0  0  0  0  0  0  0
   -1.0526    1.2074   -0.1861 C   0  0  0  0  0  0  0  0  0  0  0  0
   -1.0529   -1.2086   -0.1816 C   0  0  0  0  0  0  0  0  0  0  0  0
    3.1398    0.0005    0.3553 C   0  0  0  0  0  0  0  0  0  0  0  0
    4.5923   -0.0005   -0.0187 C   0  0  0  0  0  0  0  0  0  0  0  0
    0.8487    2.1509   -0.5344 H   0  0  0  0  0  0  0  0  0  0  0  0
    0.8482   -2.1539   -0.5260 H   0  0  0  0  0  0  0  0  0  0  0  0
   -1.5540    2.1677   -0.0966 H   0  0  0  0  0  0  0  0  0  0  0  0
   -1.5547   -2.1684   -0.0883 H   0  0  0  0  0  0  0  0  0  0  0  0
    4.8236   -0.8980   -0.5976 H   0  0  0  0  0  0  0  0  0  0  0  0
    5.2011   -0.0042    0.8899 H   0  0  0  0  0  0  0  0  0  0  0  0
    4.8260    0.8994   -0.5927 H   0  0  0  0  0  0  0  0  0  0  0  0
  1  6  1  0  0  0  0
  1 12  1  0  0  0  0
  2  5  1  0  0  0  0
  3  5  2  0  0  0  0
  4 12  2  0  0  0  0
  5  7  1  0  0  0  0
  6  8  2  0  0  0  0
  6  9  1  0  0  0  0
  7 10  2  0  0  0  0
  7 11  1  0  0  0  0
  8 10  1  0  0  0  0
  8 14  1  0  0  0  0
  9 11  2  0  0  0  0
  9 15  1  0  0  0  0
 10 16  1  0  0  0  0
 11 17  1  0  0  0  0
 12 13  1  0  0  0  0
 13 18  1  0  0  0  0
 13 19  1  0  0  0  0
 13 20  1  0  0  0  0
M  CHG  2   2  -1   5   1
M  END
> <PUBCHEM_COMPOUND_CID>
13243

> <PUBCHEM_CONFORMER_RMSD>
0.6

> <PUBCHEM_CONFORMER_DIVERSEORDER>
1
4
5
2
3

> <PUBCHEM_MMFF94_PARTIAL_CHARGES>
17
1 -0.23
10 -0.15
11 -0.15
12 0.66
13 0.06
14 0.15
15 0.15
16 0.15
17 0.15
2 -0.52
3 -0.52
4 -0.57
5 0.91
6 0.08
7 0.13
8 -0.15
9 -0.15

> <PUBCHEM_EFFECTIVE_ROTOR_COUNT>
3

> <PUBCHEM_PHARMACOPHORE_FEATURES>
5
1 2 acceptor
1 2 anion
1 3 acceptor
1 4 acceptor
6 6 7 8 9 10 11 rings

> <PUBCHEM_HEAVY_ATOM_COUNT>
13

> <PUBCHEM_ATOM_DEF_STEREO_COUNT>
0

> <PUBCHEM_ATOM_UDEF_STEREO_COUNT>
0

> <PUBCHEM_BOND_DEF_STEREO_COUNT>
0

> <PUBCHEM_BOND_UDEF_STEREO_COUNT>
0

> <PUBCHEM_ISOTOPIC_ATOM_COUNT>
0

> <PUBCHEM_COMPONENT_COUNT>
1

> <PUBCHEM_CACTVS_TAUTO_COUNT>
1

> <PUBCHEM_CONFORMER_ID>
000033BB00000001

> <PUBCHEM_MMFF94_ENERGY>
39.5745

> <PUBCHEM_FEATURE_SELFOVERLAP>
25.453

> <PUBCHEM_SHAPE_FINGERPRINT>
10130415 120 18059853947993424236
10857977 72 18409167705743079669
11031198 65 16370721518116339980
11062470 55 17060338530681993020
11132069 177 18409444812743338157
11401426 45 18410015442335655205
11769659 78 16343709811192242979
12032990 46 18410284817920202430
12119455 92 16950567709359979652
12251169 10 18410293575353010148
124424 183 17775289361310650997
12932764 1 17603879917908771966
13214271 11 18333733524507747909
13581323 91 18413112762227521902
14993402 34 18272653424169749214
15219456 202 17968090988472783486
16945 1 18410860962028741055
18175812 5 17603588491408375452
18186145 218 15430031058805481092
19026448 4 16660354896521294493
19026448 5 16702013171604916351
200 152 15410900664984667556
20645464 45 17749106690417300247
20645477 70 14907637708482197082
21119208 17 5761655884528425704
21501925 9 18339925913892239647
22485316 2 12823300087160073072
23380061 330 18335984190492336391
23402539 116 18186528708451886445
23402655 69 9510638614810814203
23463225 33 18272932734530402414
2748010 2 18050842509911703279
42 15 18342459279072348466
53812653 166 18187646937526117057
7364860 26 17898004887287195966

> <PUBCHEM_SHAPE_MULTIPOLES>
239.08
6.94
1.23
0.85
1.84
0
-0.14
0
-1.44
-0.77
0.1
0.49
0
0

> <PUBCHEM_SHAPE_SELFOVERLAP>
498.605

> <PUBCHEM_SHAPE_VOLUME>
134.4

> <PUBCHEM_COORDINATE_TYPE>
2
5
10

$$$$

