8730
  -OEChem-06261203033D

 35 36  0     1  0  0  0  0  0999 V2000
   -0.5390   -2.4896    2.6240 I   0  0  0  0  0  0  0  0  0  0  0  0
   -0.0767   -0.7957   -3.2211 I   0  0  0  0  0  0  0  0  0  0  0  0
   -6.5231   -0.3038   -0.4122 I   0  0  0  0  0  0  0  0  0  0  0  0
   -1.8339    3.3302    1.0217 I   0  0  0  0  0  0  0  0  0  0  0  0
   -1.3555   -1.8355   -0.4377 O   0  0  0  0  0  0  0  0  0  0  0  0
    2.7093    2.0459   -0.1136 O   0  0  0  0  0  0  0  0  0  0  0  0
    4.6802    2.0371   -1.2367 O   0  0  0  0  0  0  0  0  0  0  0  0
   -4.8616    2.3228    0.4860 O   0  0  0  0  0  0  0  0  0  0  0  0
    5.8770    0.8096    0.9068 N   0  0  0  0  0  0  0  0  0  0  0  0
    4.1512   -0.8186    0.2931 C   0  0  0  0  0  0  0  0  0  0  0  0
    4.4380    0.6255    0.7335 C   0  0  2  0  0  0  0  0  0  0  0  0
    2.6775   -1.0912    0.0974 C   0  0  0  0  0  0  0  0  0  0  0  0
    2.1085   -0.8780   -1.1471 C   0  0  0  0  0  0  0  0  0  0  0  0
    1.9251   -1.5481    1.1668 C   0  0  0  0  0  0  0  0  0  0  0  0
   -0.0238   -1.5891   -0.2607 C   0  0  0  0  0  0  0  0  0  0  0  0
    0.5647   -1.7987    0.9866 C   0  0  0  0  0  0  0  0  0  0  0  0
    0.7482   -1.1288   -1.3275 C   0  0  0  0  0  0  0  0  0  0  0  0
    3.9914    1.6397   -0.3055 C   0  0  0  0  0  0  0  0  0  0  0  0
   -2.2342   -0.7935   -0.2061 C   0  0  0  0  0  0  0  0  0  0  0  0
   -1.7360    0.4361    0.1889 C   0  0  0  0  0  0  0  0  0  0  0  0
   -3.5919   -1.0040   -0.3750 C   0  0  0  0  0  0  0  0  0  0  0  0
   -4.4787    0.0472   -0.1413 C   0  0  0  0  0  0  0  0  0  0  0  0
   -2.6226    1.4874    0.4224 C   0  0  0  0  0  0  0  0  0  0  0  0
   -3.9940    1.2929    0.2573 C   0  0  0  0  0  0  0  0  0  0  0  0
    4.5521   -1.5253    1.0324 H   0  0  0  0  0  0  0  0  0  0  0  0
    4.6791   -1.0439   -0.6443 H   0  0  0  0  0  0  0  0  0  0  0  0
    3.9411    0.8525    1.6841 H   0  0  0  0  0  0  0  0  0  0  0  0
    2.7211   -0.5232   -1.9721 H   0  0  0  0  0  0  0  0  0  0  0  0
    2.3969   -1.7044    2.1337 H   0  0  0  0  0  0  0  0  0  0  0  0
    6.2260    0.1480    1.5993 H   0  0  0  0  0  0  0  0  0  0  0  0
    6.0610    1.7382    1.2854 H   0  0  0  0  0  0  0  0  0  0  0  0
   -0.6799    0.6373    0.3312 H   0  0  0  0  0  0  0  0  0  0  0  0
   -3.9472   -1.9826   -0.6870 H   0  0  0  0  0  0  0  0  0  0  0  0
    2.4218    2.6856   -0.7993 H   0  0  0  0  0  0  0  0  0  0  0  0
   -5.7666    2.0058    0.3226 H   0  0  0  0  0  0  0  0  0  0  0  0
  1 16  1  0  0  0  0
  2 17  1  0  0  0  0
  3 22  1  0  0  0  0
  4 23  1  0  0  0  0
  5 15  1  0  0  0  0
  5 19  1  0  0  0  0
  6 18  1  0  0  0  0
  6 34  1  0  0  0  0
  7 18  2  0  0  0  0
  8 24  1  0  0  0  0
  8 35  1  0  0  0  0
  9 11  1  0  0  0  0
  9 30  1  0  0  0  0
  9 31  1  0  0  0  0
 10 11  1  0  0  0  0
 10 12  1  0  0  0  0
 10 25  1  0  0  0  0
 10 26  1  0  0  0  0
 11 18  1  0  0  0  0
 11 27  1  0  0  0  0
 12 13  2  0  0  0  0
 12 14  1  0  0  0  0
 13 17  1  0  0  0  0
 13 28  1  0  0  0  0
 14 16  2  0  0  0  0
 14 29  1  0  0  0  0
 15 16  1  0  0  0  0
 15 17  2  0  0  0  0
 19 20  2  0  0  0  0
 19 21  1  0  0  0  0
 20 23  1  0  0  0  0
 20 32  1  0  0  0  0
 21 22  2  0  0  0  0
 21 33  1  0  0  0  0
 22 24  1  0  0  0  0
 23 24  2  0  0  0  0
M  END
> <PUBCHEM_COMPOUND_CID>
8730

> <PUBCHEM_CONFORMER_RMSD>
0.8

> <PUBCHEM_CONFORMER_DIVERSEORDER>
1
14
6
24
10
2
11
13
8
9
18
22
16
20
19
15
3
4
7
5
17
23
21
12

> <PUBCHEM_MMFF94_PARTIAL_CHARGES>
32
1 -0.08
10 0.14
11 0.33
12 -0.14
13 -0.15
14 -0.15
15 0.08
16 0.08
17 0.08
18 0.66
19 0.08
2 -0.08
20 -0.15
21 -0.15
22 0.08
23 0.08
24 0.08
28 0.15
29 0.15
3 -0.08
30 0.36
31 0.36
32 0.15
33 0.15
34 0.5
35 0.45
4 -0.08
5 -0.17
6 -0.65
7 -0.57
8 -0.53
9 -0.99

> <PUBCHEM_EFFECTIVE_ROTOR_COUNT>
5

> <PUBCHEM_PHARMACOPHORE_FEATURES>
13
1 1 hydrophobe
1 2 hydrophobe
1 3 hydrophobe
1 4 hydrophobe
1 5 acceptor
1 6 acceptor
1 7 acceptor
1 8 donor
1 9 cation
1 9 donor
3 6 7 18 anion
6 12 13 14 15 16 17 rings
6 19 20 21 22 23 24 rings

> <PUBCHEM_HEAVY_ATOM_COUNT>
24

> <PUBCHEM_ATOM_DEF_STEREO_COUNT>
1

> <PUBCHEM_ATOM_UDEF_STEREO_COUNT>
0

> <PUBCHEM_BOND_DEF_STEREO_COUNT>
0

> <PUBCHEM_BOND_UDEF_STEREO_COUNT>
0

> <PUBCHEM_ISOTOPIC_ATOM_COUNT>
0

> <PUBCHEM_COMPONENT_COUNT>
1

> <PUBCHEM_CACTVS_TAUTO_COUNT>
2

> <PUBCHEM_CONFORMER_ID>
0000221A00000001

> <PUBCHEM_MMFF94_ENERGY>
68.7136

> <PUBCHEM_FEATURE_SELFOVERLAP>
66.025

> <PUBCHEM_SHAPE_FINGERPRINT>
10498660 4 18189334739931416345
10670039 82 18334845148197077996
10906281 52 18187070772955208543
12107698 1 18262517129737269550
12236239 1 18201723994135768887
12596602 18 17489306339249021793
12633257 1 17631746980375550808
12824470 246 11024110962273303646
13140716 1 16486406561050398842
13583140 156 17340672399518828049
13965767 371 17408230826113925925
14251764 38 18337664317163810968
14341114 328 18412266124972501081
14739800 52 18263101988751196898
14787075 74 18342461405091716195
14931854 50 18408599249579009396
15163728 17 17968919981311042702
15238133 3 18341891871296399380
15961568 22 18333447659837759453
19784866 140 13840257100562680359
20511986 3 18130239267441511223
20715895 44 17834118920082027701
21033648 29 17203335549702429829
21857420 4 5526158962244645362
22079108 93 18060700572263628435
23114952 82 16952236840914799919
23227448 37 18335423430666300487
23352939 185 17603585214633146307
23557571 272 17895191160449721255
23559900 14 17679861797853624655
2838139 119 18187373107902650392
3472631 163 18263644133941421725
34797466 226 16660644012129143649
392239 28 18201146668694316907
4325135 7 18259990366623469423
4340502 62 17704070699082582747
44802255 64 17533483549198085612
474 4 18272933812746561282
5104073 3 18200026382562866195
7288768 16 17770230353787928928
9981440 41 18410009914449618610

> <PUBCHEM_SHAPE_MULTIPOLES>
513.19
11.46
3.13
2.17
2.42
2.03
1.04
5.3
-0.18
0.29
-1.62
-0.5
-1.41
-1.01

> <PUBCHEM_SHAPE_SELFOVERLAP>
1009.408

> <PUBCHEM_SHAPE_VOLUME>
318.3

> <PUBCHEM_COORDINATE_TYPE>
2
5
10

$$$$

