586185
  -OEChem-06241222452D

 48 49  0     1  0  0  0  0  0999 V2000
    5.5202   -1.1177    0.0000 O   0  0  0  0  0  0  0  0  0  0  0  0
    6.0234    2.5694    0.0000 O   0  0  0  0  0  0  0  0  0  0  0  0
    6.4302    1.6559    0.0000 O   0  0  0  0  0  0  0  0  0  0  0  0
    4.8479    0.9514    0.0000 N   0  0  0  0  0  0  0  0  0  0  0  0
    2.9511   -0.8087    0.0000 N   0  0  3  0  0  0  0  0  0  0  0  0
    3.7601   -1.3965    0.0000 N   0  0  0  0  0  0  0  0  0  0  0  0
    4.6222    3.5875    0.0000 N   0  0  0  0  0  0  0  0  0  0  0  0
    6.2491   -0.0667    0.0000 N   0  0  0  0  0  0  0  0  0  0  0  0
    4.2601    0.1424    0.0000 C   0  0  0  0  0  0  0  0  0  0  0  0
    3.2601    0.1424    0.0000 C   0  0  0  0  0  0  0  0  0  0  0  0
    4.4411    1.8649    0.0000 C   0  0  3  0  0  0  0  0  0  0  0  0
    4.5691   -0.8087    0.0000 C   0  0  0  0  0  0  0  0  0  0  0  0
    3.7601   -2.3965    0.0000 C   0  0  0  0  0  0  0  0  0  0  0  0
    2.6723    0.9514    0.0000 C   0  0  0  0  0  0  0  0  0  0  0  0
    3.4466    1.9694    0.0000 C   0  0  0  0  0  0  0  0  0  0  0  0
    5.0289    2.6739    0.0000 C   0  0  0  0  0  0  0  0  0  0  0  0
    2.0000   -1.1177    0.0000 C   0  0  0  0  0  0  0  0  0  0  0  0
    5.8424    0.8468    0.0000 C   0  0  0  0  0  0  0  0  0  0  0  0
    2.8940   -2.8965    0.0000 C   0  0  0  0  0  0  0  0  0  0  0  0
    4.6261   -2.8965    0.0000 C   0  0  0  0  0  0  0  0  0  0  0  0
    5.2100    4.3965    0.0000 C   0  0  0  0  0  0  0  0  0  0  0  0
    3.6276    3.6920    0.0000 C   0  0  0  0  0  0  0  0  0  0  0  0
    2.8940   -3.8965    0.0000 C   0  0  0  0  0  0  0  0  0  0  0  0
    4.6261   -3.8965    0.0000 C   0  0  0  0  0  0  0  0  0  0  0  0
    3.7601   -4.3965    0.0000 C   0  0  0  0  0  0  0  0  0  0  0  0
    3.9415    1.1772    0.0000 H   0  0  0  0  0  0  0  0  0  0  0  0
    3.5114    2.5860    0.0000 H   0  0  0  0  0  0  0  0  0  0  0  0
    2.8300    2.0342    0.0000 H   0  0  0  0  0  0  0  0  0  0  0  0
    3.3818    1.3528    0.0000 H   0  0  0  0  0  0  0  0  0  0  0  0
    3.1739    1.3158    0.0000 H   0  0  0  0  0  0  0  0  0  0  0  0
    2.3079    1.4530    0.0000 H   0  0  0  0  0  0  0  0  0  0  0  0
    2.1707    0.5869    0.0000 H   0  0  0  0  0  0  0  0  0  0  0  0
    1.8084   -0.5281    0.0000 H   0  0  0  0  0  0  0  0  0  0  0  0
    1.4103   -1.3093    0.0000 H   0  0  0  0  0  0  0  0  0  0  0  0
    2.1916   -1.7074    0.0000 H   0  0  0  0  0  0  0  0  0  0  0  0
    2.3571   -2.5865    0.0000 H   0  0  0  0  0  0  0  0  0  0  0  0
    5.1630   -2.5865    0.0000 H   0  0  0  0  0  0  0  0  0  0  0  0
    5.7116    4.0321    0.0000 H   0  0  0  0  0  0  0  0  0  0  0  0
    5.5744    4.8981    0.0000 H   0  0  0  0  0  0  0  0  0  0  0  0
    4.7084    4.7609    0.0000 H   0  0  0  0  0  0  0  0  0  0  0  0
    3.6925    4.3086    0.0000 H   0  0  0  0  0  0  0  0  0  0  0  0
    3.0110    3.7568    0.0000 H   0  0  0  0  0  0  0  0  0  0  0  0
    3.5628    3.0754    0.0000 H   0  0  0  0  0  0  0  0  0  0  0  0
    2.3571   -4.2065    0.0000 H   0  0  0  0  0  0  0  0  0  0  0  0
    5.1630   -4.2065    0.0000 H   0  0  0  0  0  0  0  0  0  0  0  0
    6.8657   -0.1315    0.0000 H   0  0  0  0  0  0  0  0  0  0  0  0
    5.8847   -0.5683    0.0000 H   0  0  0  0  0  0  0  0  0  0  0  0
    3.7601   -5.0165    0.0000 H   0  0  0  0  0  0  0  0  0  0  0  0
  1 12  2  0  0  0  0
  2 16  2  0  0  0  0
  3 18  2  0  0  0  0
  4  9  1  0  0  0  0
  4 11  1  0  0  0  0
  4 18  1  0  0  0  0
  5  6  1  0  0  0  0
  5 10  1  0  0  0  0
  5 17  1  0  0  0  0
  6 12  1  0  0  0  0
  6 13  1  0  0  0  0
  7 16  1  0  0  0  0
  7 21  1  0  0  0  0
  7 22  1  0  0  0  0
  8 18  1  0  0  0  0
  8 46  1  0  0  0  0
  8 47  1  0  0  0  0
  9 10  2  0  0  0  0
  9 12  1  0  0  0  0
 10 14  1  0  0  0  0
 11 15  1  0  0  0  0
 11 16  1  0  0  0  0
 11 26  1  0  0  0  0
 13 19  2  0  0  0  0
 13 20  1  0  0  0  0
 14 30  1  0  0  0  0
 14 31  1  0  0  0  0
 14 32  1  0  0  0  0
 15 27  1  0  0  0  0
 15 28  1  0  0  0  0
 15 29  1  0  0  0  0
 17 33  1  0  0  0  0
 17 34  1  0  0  0  0
 17 35  1  0  0  0  0
 19 23  1  0  0  0  0
 19 36  1  0  0  0  0
 20 24  2  0  0  0  0
 20 37  1  0  0  0  0
 21 38  1  0  0  0  0
 21 39  1  0  0  0  0
 21 40  1  0  0  0  0
 22 41  1  0  0  0  0
 22 42  1  0  0  0  0
 22 43  1  0  0  0  0
 23 25  2  0  0  0  0
 23 44  1  0  0  0  0
 24 25  1  0  0  0  0
 24 45  1  0  0  0  0
 25 48  1  0  0  0  0
M  END
> <PUBCHEM_COMPOUND_CID>
586185

> <PUBCHEM_COMPOUND_CANONICALIZED>
1

> <PUBCHEM_CACTVS_COMPLEXITY>
595

> <PUBCHEM_CACTVS_HBOND_ACCEPTOR>
4

> <PUBCHEM_CACTVS_HBOND_DONOR>
1

> <PUBCHEM_CACTVS_ROTATABLE_BOND>
4

> <PUBCHEM_CACTVS_SUBSKEYS>
AAADceB7sAAAAAAAAAAAAAAAAAAAAQAAAAAwAAAAAAAAAAABAAAAHgAYAAAACCjBkAQzwINAAACIACVSUACCBAAhAgAaiAGIZMiIYCLAkbGUIAhghgLIyUcQAAAAAAAAAAAAAAAAAAAAAAAAAAAAAAAAAA==

> <PUBCHEM_IUPAC_OPENEYE_NAME>
2-[carbamoyl-(1,5-dimethyl-3-oxo-2-phenyl-pyrazol-4-yl)amino]-N,N-dimethyl-propanamide

> <PUBCHEM_IUPAC_CAS_NAME>
2-[carbamoyl-(1,5-dimethyl-3-oxo-2-phenyl-4-pyrazolyl)amino]-N,N-dimethylpropanamide

> <PUBCHEM_IUPAC_NAME>
2-[carbamoyl-(1,5-dimethyl-3-oxo-2-phenylpyrazol-4-yl)amino]-N,N-dimethylpropanamide

> <PUBCHEM_IUPAC_SYSTEMATIC_NAME>
2-[aminocarbonyl-(1,5-dimethyl-3-oxidanylidene-2-phenyl-pyrazol-4-yl)amino]-N,N-dimethyl-propanamide

> <PUBCHEM_IUPAC_TRADITIONAL_NAME>
2-[carbamoyl-(3-keto-1,5-dimethyl-2-phenyl-3-pyrazolin-4-yl)amino]-N,N-dimethyl-propionamide

> <PUBCHEM_IUPAC_INCHI>
InChI=1S/C17H23N5O3/c1-11-14(21(17(18)25)12(2)15(23)19(3)4)16(24)22(20(11)5)13-9-7-6-8-10-13/h6-10,12H,1-5H3,(H2,18,25)

> <PUBCHEM_IUPAC_INCHIKEY>
MSVBSJWBQBGRSL-UHFFFAOYSA-N

> <PUBCHEM_XLOGP3_AA>
0.9

> <PUBCHEM_EXACT_MASS>
345.18009

> <PUBCHEM_MOLECULAR_FORMULA>
C17H23N5O3

> <PUBCHEM_MOLECULAR_WEIGHT>
345.39622

> <PUBCHEM_OPENEYE_CAN_SMILES>
CC1=C(C(=O)N(N1C)C2=CC=CC=C2)N(C(C)C(=O)N(C)C)C(=O)N

> <PUBCHEM_OPENEYE_ISO_SMILES>
CC1=C(C(=O)N(N1C)C2=CC=CC=C2)N(C(C)C(=O)N(C)C)C(=O)N

> <PUBCHEM_CACTVS_TPSA>
90.2

> <PUBCHEM_MONOISOTOPIC_WEIGHT>
345.18009

> <PUBCHEM_TOTAL_CHARGE>
0

> <PUBCHEM_HEAVY_ATOM_COUNT>
25

> <PUBCHEM_ATOM_DEF_STEREO_COUNT>
0

> <PUBCHEM_ATOM_UDEF_STEREO_COUNT>
1

> <PUBCHEM_BOND_DEF_STEREO_COUNT>
0

> <PUBCHEM_BOND_UDEF_STEREO_COUNT>
0

> <PUBCHEM_ISOTOPIC_ATOM_COUNT>
0

> <PUBCHEM_COMPONENT_COUNT>
1

> <PUBCHEM_CACTVS_TAUTO_COUNT>
2

> <PUBCHEM_COORDINATE_TYPE>
1
5
255

> <PUBCHEM_BONDANNOTATIONS>
11  26  3
13  19  8
13  20  8
19  23  8
20  24  8
23  25  8
24  25  8
5  10  8
5  6  8
6  12  8
9  10  8
9  12  8

$$$$

