4001
  -OEChem-06251223482D

 42 44  0     1  0  0  0  0  0999 V2000
    4.5807   -3.3872    0.0000 Br  0  0  0  0  0  0  0  0  0  0  0  0
    3.2543    2.4122    0.0000 O   0  0  0  0  0  0  0  0  0  0  0  0
    4.1203    2.9122    0.0000 O   0  0  0  0  0  0  0  0  0  0  0  0
    5.7156    2.7883    0.0000 O   0  0  0  0  0  0  0  0  0  0  0  0
    4.3193   -0.3986    0.0000 C   0  0  3  0  0  0  0  0  0  0  0  0
    4.2320    0.5976    0.0000 C   0  0  3  0  0  0  0  0  0  0  0  0
    5.3127   -1.8174    0.0000 C   0  0  0  0  0  0  0  0  0  0  0  0
    5.2255   -0.8212    0.0000 C   0  0  0  0  0  0  0  0  0  0  0  0
    3.5000   -0.9722    0.0000 C   0  0  0  0  0  0  0  0  0  0  0  0
    6.0640   -0.1612    0.0000 C   0  0  0  0  0  0  0  0  0  0  0  0
    4.4936   -2.3910    0.0000 C   0  0  3  0  0  0  0  0  0  0  0  0
    3.5872   -1.9684    0.0000 C   0  0  0  0  0  0  0  0  0  0  0  0
    4.4909    1.5635    0.0000 C   0  0  3  0  0  0  0  0  0  0  0  0
    6.3228    0.8047    0.0000 C   0  0  0  0  0  0  0  0  0  0  0  0
    2.5000   -0.4024    0.0000 C   0  0  0  0  0  0  0  0  0  0  0  0
    2.0000    0.4636    0.0000 C   0  0  0  0  0  0  0  0  0  0  0  0
    5.8863   -2.6366    0.0000 C   0  0  0  0  0  0  0  0  0  0  0  0
    6.3089   -1.7302    0.0000 C   0  0  0  0  0  0  0  0  0  0  0  0
    4.7497    2.5295    0.0000 C   0  0  0  0  0  0  0  0  0  0  0  0
    4.8271   -0.0429    0.0000 H   0  0  0  0  0  0  0  0  0  0  0  0
    5.8431   -0.8752    0.0000 H   0  0  0  0  0  0  0  0  0  0  0  0
    5.3860   -0.2223    0.0000 H   0  0  0  0  0  0  0  0  0  0  0  0
    3.2380   -0.4102    0.0000 H   0  0  0  0  0  0  0  0  0  0  0  0
    2.9012   -1.1326    0.0000 H   0  0  0  0  0  0  0  0  0  0  0  0
    5.8520   -0.7438    0.0000 H   0  0  0  0  0  0  0  0  0  0  0  0
    6.6553   -0.3476    0.0000 H   0  0  0  0  0  0  0  0  0  0  0  0
    5.0555   -2.6530    0.0000 H   0  0  0  0  0  0  0  0  0  0  0  0
    2.9696   -1.9143    0.0000 H   0  0  0  0  0  0  0  0  0  0  0  0
    3.4268   -2.5672    0.0000 H   0  0  0  0  0  0  0  0  0  0  0  0
    6.9141    0.6183    0.0000 H   0  0  0  0  0  0  0  0  0  0  0  0
    6.5349    1.3873    0.0000 H   0  0  0  0  0  0  0  0  0  0  0  0
    2.3395   -1.0013    0.0000 H   0  0  0  0  0  0  0  0  0  0  0  0
    1.4106    0.6561    0.0000 H   0  0  0  0  0  0  0  0  0  0  0  0
    5.3784   -2.9922    0.0000 H   0  0  0  0  0  0  0  0  0  0  0  0
    6.2419   -3.1444    0.0000 H   0  0  0  0  0  0  0  0  0  0  0  0
    6.3941   -2.2809    0.0000 H   0  0  0  0  0  0  0  0  0  0  0  0
    6.3629   -2.3479    0.0000 H   0  0  0  0  0  0  0  0  0  0  0  0
    6.9265   -1.6762    0.0000 H   0  0  0  0  0  0  0  0  0  0  0  0
    6.2548   -1.1126    0.0000 H   0  0  0  0  0  0  0  0  0  0  0  0
    4.6956    3.1471    0.0000 H   0  0  0  0  0  0  0  0  0  0  0  0
    4.1320    2.5835    0.0000 H   0  0  0  0  0  0  0  0  0  0  0  0
    5.8761    3.3872    0.0000 H   0  0  0  0  0  0  0  0  0  0  0  0
  1 11  1  0  0  0  0
  2  3  1  0  0  0  0
  2  6  1  0  0  0  0
  3 13  1  0  0  0  0
  4 19  1  0  0  0  0
  4 42  1  0  0  0  0
  5  6  1  0  0  0  0
  5  8  1  0  0  0  0
  5  9  1  0  0  0  0
  5 20  1  0  0  0  0
  6 10  1  0  0  0  0
  6 15  1  0  0  0  0
  7  8  1  0  0  0  0
  7 11  1  0  0  0  0
  7 17  1  0  0  0  0
  7 18  1  0  0  0  0
  8 21  1  0  0  0  0
  8 22  1  0  0  0  0
  9 12  1  0  0  0  0
  9 23  1  0  0  0  0
  9 24  1  0  0  0  0
 10 14  1  0  0  0  0
 10 25  1  0  0  0  0
 10 26  1  0  0  0  0
 11 12  1  0  0  0  0
 11 27  1  0  0  0  0
 12 28  1  0  0  0  0
 12 29  1  0  0  0  0
 13 14  1  0  0  0  0
 13 16  1  0  0  0  0
 13 19  1  0  0  0  0
 14 30  1  0  0  0  0
 14 31  1  0  0  0  0
 15 16  2  0  0  0  0
 15 32  1  0  0  0  0
 16 33  1  0  0  0  0
 17 34  1  0  0  0  0
 17 35  1  0  0  0  0
 17 36  1  0  0  0  0
 18 37  1  0  0  0  0
 18 38  1  0  0  0  0
 18 39  1  0  0  0  0
 19 40  1  0  0  0  0
 19 41  1  0  0  0  0
M  END
> <PUBCHEM_COMPOUND_CID>
4001

> <PUBCHEM_COMPOUND_CANONICALIZED>
1

> <PUBCHEM_CACTVS_COMPLEXITY>
395

> <PUBCHEM_CACTVS_HBOND_ACCEPTOR>
3

> <PUBCHEM_CACTVS_HBOND_DONOR>
1

> <PUBCHEM_CACTVS_ROTATABLE_BOND>
2

> <PUBCHEM_CACTVS_SUBSKEYS>
AAADceBwMAAAEAAAAAAAAAAAAAAAAAAAAAA0QIEAAAAAAAAAAAAAGgBADAABz0SggAICAAAAAgCAACBCAAAAAAAgAAAICAAAACgBFAIAAAAAUAAEwAAJAAPA4PQPgAAAAAAAAAAEAAQAAAEAAAAAAAAAAA==

> <PUBCHEM_IUPAC_OPENEYE_NAME>
[4-(4-bromo-3,3-dimethyl-cyclohexyl)-2,3-dioxabicyclo[2.2.2]oct-5-en-1-yl]methanol

> <PUBCHEM_IUPAC_CAS_NAME>
[4-(4-bromo-3,3-dimethylcyclohexyl)-2,3-dioxabicyclo[2.2.2]oct-5-en-1-yl]methanol

> <PUBCHEM_IUPAC_NAME>
[4-(4-bromo-3,3-dimethylcyclohexyl)-2,3-dioxabicyclo[2.2.2]oct-5-en-1-yl]methanol

> <PUBCHEM_IUPAC_SYSTEMATIC_NAME>
[4-(4-bromanyl-3,3-dimethyl-cyclohexyl)-2,3-dioxabicyclo[2.2.2]oct-5-en-1-yl]methanol

> <PUBCHEM_IUPAC_TRADITIONAL_NAME>
[4-(4-bromo-3,3-dimethyl-cyclohexyl)-2,3-dioxabicyclo[2.2.2]oct-5-en-1-yl]methanol

> <PUBCHEM_IUPAC_INCHI>
InChI=1S/C15H23BrO3/c1-13(2)9-11(3-4-12(13)16)15-7-5-14(10-17,6-8-15)18-19-15/h5,7,11-12,17H,3-4,6,8-10H2,1-2H3

> <PUBCHEM_IUPAC_INCHIKEY>
KZRDDGGREUNDMV-UHFFFAOYSA-N

> <PUBCHEM_XLOGP3_AA>
3

> <PUBCHEM_EXACT_MASS>
330.083057

> <PUBCHEM_MOLECULAR_FORMULA>
C15H23BrO3

> <PUBCHEM_MOLECULAR_WEIGHT>
331.24532

> <PUBCHEM_OPENEYE_CAN_SMILES>
CC1(CC(CCC1Br)C23CCC(C=C2)(OO3)CO)C

> <PUBCHEM_OPENEYE_ISO_SMILES>
CC1(CC(CCC1Br)C23CCC(C=C2)(OO3)CO)C

> <PUBCHEM_CACTVS_TPSA>
38.7

> <PUBCHEM_MONOISOTOPIC_WEIGHT>
330.083057

> <PUBCHEM_TOTAL_CHARGE>
0

> <PUBCHEM_HEAVY_ATOM_COUNT>
19

> <PUBCHEM_ATOM_DEF_STEREO_COUNT>
0

> <PUBCHEM_ATOM_UDEF_STEREO_COUNT>
4

> <PUBCHEM_BOND_DEF_STEREO_COUNT>
0

> <PUBCHEM_BOND_UDEF_STEREO_COUNT>
0

> <PUBCHEM_ISOTOPIC_ATOM_COUNT>
0

> <PUBCHEM_COMPONENT_COUNT>
1

> <PUBCHEM_CACTVS_TAUTO_COUNT>
1

> <PUBCHEM_COORDINATE_TYPE>
1
5
255

> <PUBCHEM_BONDANNOTATIONS>
11  1  3
13  19  3
5  9  3
6  15  3

$$$$

