586325
  -OEChem-06241222463D

 27 27  0     0  0  0  0  0  0999 V2000
    2.7812    1.0120    0.0008 O   0  0  0  0  0  0  0  0  0  0  0  0
   -4.7981    0.0904    0.0005 O   0  0  0  0  0  0  0  0  0  0  0  0
   -3.8323   -1.9673   -0.0001 O   0  0  0  0  0  0  0  0  0  0  0  0
    1.1672   -0.6988    0.0005 N   0  0  0  0  0  0  0  0  0  0  0  0
    3.4229   -1.2088   -0.0004 N   0  0  0  0  0  0  0  0  0  0  0  0
   -0.0428   -0.0038    0.0011 C   0  0  0  0  0  0  0  0  0  0  0  0
   -1.2494   -0.7035    0.0005 C   0  0  0  0  0  0  0  0  0  0  0  0
   -2.4587   -0.0083   -0.0007 C   0  0  0  0  0  0  0  0  0  0  0  0
    4.8480   -0.9709   -0.0007 C   0  0  0  0  0  0  0  0  0  0  0  0
   -0.0454    1.3910    0.0006 C   0  0  0  0  0  0  0  0  0  0  0  0
    2.4771   -0.1785    0.0002 C   0  0  0  0  0  0  0  0  0  0  0  0
   -2.4613    1.3866   -0.0011 C   0  0  0  0  0  0  0  0  0  0  0  0
   -1.2547    2.0863   -0.0004 C   0  0  0  0  0  0  0  0  0  0  0  0
    5.1632    0.5107   -0.0004 C   0  0  0  0  0  0  0  0  0  0  0  0
   -3.7170   -0.7371   -0.0004 C   0  0  0  0  0  0  0  0  0  0  0  0
   -1.2408   -1.7913    0.0007 H   0  0  0  0  0  0  0  0  0  0  0  0
    5.2648   -1.4593    0.8854 H   0  0  0  0  0  0  0  0  0  0  0  0
    5.2643   -1.4587   -0.8874 H   0  0  0  0  0  0  0  0  0  0  0  0
    1.0919   -1.7130    0.0002 H   0  0  0  0  0  0  0  0  0  0  0  0
    0.8457    2.0027    0.0008 H   0  0  0  0  0  0  0  0  0  0  0  0
    3.0981   -2.1706   -0.0008 H   0  0  0  0  0  0  0  0  0  0  0  0
   -3.3792    1.9676   -0.0020 H   0  0  0  0  0  0  0  0  0  0  0  0
   -1.2575    3.1725   -0.0008 H   0  0  0  0  0  0  0  0  0  0  0  0
    4.8308    1.0224   -0.9096 H   0  0  0  0  0  0  0  0  0  0  0  0
    4.8315    1.0218    0.9094 H   0  0  0  0  0  0  0  0  0  0  0  0
    6.2558    0.6193   -0.0007 H   0  0  0  0  0  0  0  0  0  0  0  0
   -5.6413   -0.4110    0.0012 H   0  0  0  0  0  0  0  0  0  0  0  0
  1 11  2  0  0  0  0
  2 15  1  0  0  0  0
  2 27  1  0  0  0  0
  3 15  2  0  0  0  0
  4  6  1  0  0  0  0
  4 11  1  0  0  0  0
  4 19  1  0  0  0  0
  5  9  1  0  0  0  0
  5 11  1  0  0  0  0
  5 21  1  0  0  0  0
  6  7  1  0  0  0  0
  6 10  2  0  0  0  0
  7  8  2  0  0  0  0
  7 16  1  0  0  0  0
  8 12  1  0  0  0  0
  8 15  1  0  0  0  0
  9 14  1  0  0  0  0
  9 17  1  0  0  0  0
  9 18  1  0  0  0  0
 10 13  1  0  0  0  0
 10 20  1  0  0  0  0
 12 13  2  0  0  0  0
 12 22  1  0  0  0  0
 13 23  1  0  0  0  0
 14 24  1  0  0  0  0
 14 25  1  0  0  0  0
 14 26  1  0  0  0  0
M  END
> <PUBCHEM_COMPOUND_CID>
586325

> <PUBCHEM_CONFORMER_RMSD>
0.6

> <PUBCHEM_CONFORMER_DIVERSEORDER>
1
7
6
2
3
5
4

> <PUBCHEM_MMFF94_PARTIAL_CHARGES>
21
1 -0.57
10 -0.15
11 0.69
12 -0.15
13 -0.15
15 0.63
16 0.15
19 0.37
2 -0.65
20 0.15
21 0.37
22 0.15
23 0.15
27 0.5
3 -0.57
4 -0.55
5 -0.73
6 0.12
7 -0.15
8 0.09
9 0.3

> <PUBCHEM_EFFECTIVE_ROTOR_COUNT>
5

> <PUBCHEM_PHARMACOPHORE_FEATURES>
7
1 1 acceptor
1 2 acceptor
1 3 acceptor
1 4 donor
1 5 donor
3 2 3 15 anion
6 6 7 8 10 12 13 rings

> <PUBCHEM_HEAVY_ATOM_COUNT>
15

> <PUBCHEM_ATOM_DEF_STEREO_COUNT>
0

> <PUBCHEM_ATOM_UDEF_STEREO_COUNT>
0

> <PUBCHEM_BOND_DEF_STEREO_COUNT>
0

> <PUBCHEM_BOND_UDEF_STEREO_COUNT>
0

> <PUBCHEM_ISOTOPIC_ATOM_COUNT>
0

> <PUBCHEM_COMPONENT_COUNT>
1

> <PUBCHEM_CACTVS_TAUTO_COUNT>
3

> <PUBCHEM_CONFORMER_ID>
0008F25500000001

> <PUBCHEM_MMFF94_ENERGY>
47.2379

> <PUBCHEM_FEATURE_SELFOVERLAP>
35.626

> <PUBCHEM_SHAPE_FINGERPRINT>
11401426 45 18342460339628323855
11806522 49 18342457024040178420
12032990 46 18410854330841926339
13214271 11 18260832622194365629
13288520 33 18408882971070859766
13740256 8 18269832026289491435
14123238 8 18186521003702589150
14943859 89 8646766694493267372
15196674 1 18410856546792103268
17802600 8 18410577292719712032
17834072 33 18343579625654854492
18186145 218 16773800251391076213
18522853 276 18409449193636548632
187816 3 17632576050259509811
1986462 14 18339077198284471908
200 152 18413392033632873583
20300324 65 18411417323650140104
20374829 77 18412549803452187403
20510252 161 18260829353497582024
20645477 70 18188769578397307814
21267235 1 18411691089086857203
22485316 2 18411984667165311490
2297311 6 18187634834825241796
23402539 116 18410862053035135551
23557571 272 18187639258251465300
23559900 14 18410862027455307192
42 15 18410292523487020726
4214541 1 18338516447365004832
4463277 17 18411417324082845097
474 4 17202472317976016236
5104073 3 18336266842448225472
573450 72 18129110081388704682
77779 3 18409447024946849092
8809292 202 18271803489145035011
9709674 26 18411692227607040762

> <PUBCHEM_SHAPE_MULTIPOLES>
281.12
9.94
1.71
0.59
7.04
0.32
0
-2.89
0
-0.94
0
0.01
0.02
0

> <PUBCHEM_SHAPE_SELFOVERLAP>
582.409

> <PUBCHEM_SHAPE_VOLUME>
159.9

> <PUBCHEM_COORDINATE_TYPE>
2
5
10

$$$$

