4318
  -OEChem-06261200022D

 96101  0     1  0  0  0  0  0999 V2000
    7.6138    0.4712    0.0000 O   0  0  0  0  0  0  0  0  0  0  0  0
    6.2619   -0.9522    0.0000 O   0  0  0  0  0  0  0  0  0  0  0  0
   10.1921    2.7846    0.0000 O   0  0  0  0  0  0  0  0  0  0  0  0
   11.8473   -3.1046    0.0000 O   0  0  0  0  0  0  0  0  0  0  0  0
    6.6353    0.2649    0.0000 O   0  0  0  0  0  0  0  0  0  0  0  0
    9.5708    0.8836    0.0000 N   0  0  3  0  0  0  0  0  0  0  0  0
   10.9065   -0.6050    0.0000 N   0  0  3  0  0  0  0  0  0  0  0  0
    4.9889    0.8030    0.0000 N   0  0  0  0  0  0  0  0  0  0  0  0
   11.8385    2.2466    0.0000 N   0  0  0  0  0  0  0  0  0  0  0  0
   10.5493    1.0898    0.0000 C   0  0  3  0  0  0  0  0  0  0  0  0
   11.2171    0.3455    0.0000 C   0  0  0  0  0  0  0  0  0  0  0  0
    9.2601   -0.0669    0.0000 C   0  0  0  0  0  0  0  0  0  0  0  0
    8.9030    1.6279    0.0000 C   0  0  0  0  0  0  0  0  0  0  0  0
    9.9280   -0.8112    0.0000 C   0  0  0  0  0  0  0  0  0  0  0  0
    7.9244    1.4217    0.0000 C   0  0  3  0  0  0  0  0  0  0  0  0
    7.2566    2.1660    0.0000 C   0  0  0  0  0  0  0  0  0  0  0  0
    6.2781    1.9598    0.0000 C   0  0  3  0  0  0  0  0  0  0  0  0
    4.6783   -0.1475    0.0000 C   0  0  3  0  0  0  0  0  0  0  0  0
   10.8600    2.0403    0.0000 C   0  0  0  0  0  0  0  0  0  0  0  0
   11.5743   -1.3493    0.0000 C   0  0  0  0  0  0  0  0  0  0  0  0
    5.2619   -0.9522    0.0000 C   0  0  3  0  0  0  0  0  0  0  0  0
    4.6783   -1.7570    0.0000 C   0  0  0  0  0  0  0  0  0  0  0  0
    3.7320   -0.4522    0.0000 C   0  0  0  0  0  0  0  0  0  0  0  0
    5.9674    1.0092    0.0000 C   0  0  0  0  0  0  0  0  0  0  0  0
    5.6103    2.7041    0.0000 C   0  0  0  0  0  0  0  0  0  0  0  0
    3.7320   -1.4522    0.0000 C   0  0  0  0  0  0  0  0  0  0  0  0
   12.5063    1.5023    0.0000 C   0  0  0  0  0  0  0  0  0  0  0  0
   11.2637   -2.2998    0.0000 C   0  0  0  0  0  0  0  0  0  0  0  0
    2.8660    0.0478    0.0000 C   0  0  0  0  0  0  0  0  0  0  0  0
    5.9209    3.6546    0.0000 C   0  0  0  0  0  0  0  0  0  0  0  0
    2.8660   -1.9522    0.0000 C   0  0  0  0  0  0  0  0  0  0  0  0
   13.1742    0.7580    0.0000 C   0  0  0  0  0  0  0  0  0  0  0  0
   13.2506    2.1701    0.0000 C   0  0  0  0  0  0  0  0  0  0  0  0
   11.7620    0.8344    0.0000 C   0  0  0  0  0  0  0  0  0  0  0  0
   10.3174   -2.6046    0.0000 C   0  0  0  0  0  0  0  0  0  0  0  0
    2.0000   -0.4522    0.0000 C   0  0  0  0  0  0  0  0  0  0  0  0
    2.0000   -1.4522    0.0000 C   0  0  0  0  0  0  0  0  0  0  0  0
   10.3131   -3.5986    0.0000 C   0  0  0  0  0  0  0  0  0  0  0  0
   11.2637   -3.9093    0.0000 C   0  0  0  0  0  0  0  0  0  0  0  0
    6.8994    3.8608    0.0000 C   0  0  0  0  0  0  0  0  0  0  0  0
    5.2531    4.3989    0.0000 C   0  0  0  0  0  0  0  0  0  0  0  0
    7.2101    4.8113    0.0000 C   0  0  0  0  0  0  0  0  0  0  0  0
    5.5637    5.3494    0.0000 C   0  0  0  0  0  0  0  0  0  0  0  0
    9.5688   -4.2665    0.0000 C   0  0  0  0  0  0  0  0  0  0  0  0
   11.4699   -4.8878    0.0000 C   0  0  0  0  0  0  0  0  0  0  0  0
    6.5422    5.5556    0.0000 C   0  0  0  0  0  0  0  0  0  0  0  0
    9.7751   -5.2450    0.0000 C   0  0  0  0  0  0  0  0  0  0  0  0
   10.7256   -5.5556    0.0000 C   0  0  0  0  0  0  0  0  0  0  0  0
   10.1352    1.5513    0.0000 H   0  0  0  0  0  0  0  0  0  0  0  0
   11.7641    0.0535    0.0000 H   0  0  0  0  0  0  0  0  0  0  0  0
   11.5997    0.8334    0.0000 H   0  0  0  0  0  0  0  0  0  0  0  0
    8.7132    0.2251    0.0000 H   0  0  0  0  0  0  0  0  0  0  0  0
    8.8776   -0.5548    0.0000 H   0  0  0  0  0  0  0  0  0  0  0  0
    9.4293    1.9556    0.0000 H   0  0  0  0  0  0  0  0  0  0  0  0
    8.6717    2.2032    0.0000 H   0  0  0  0  0  0  0  0  0  0  0  0
    9.4016   -1.1389    0.0000 H   0  0  0  0  0  0  0  0  0  0  0  0
   10.1592   -1.3865    0.0000 H   0  0  0  0  0  0  0  0  0  0  0  0
    8.3385    0.9602    0.0000 H   0  0  0  0  0  0  0  0  0  0  0  0
    7.7830    2.4936    0.0000 H   0  0  0  0  0  0  0  0  0  0  0  0
    7.0254    2.7412    0.0000 H   0  0  0  0  0  0  0  0  0  0  0  0
    5.6714    1.8319    0.0000 H   0  0  0  0  0  0  0  0  0  0  0  0
    5.2908   -0.0513    0.0000 H   0  0  0  0  0  0  0  0  0  0  0  0
   12.1213   -1.6413    0.0000 H   0  0  0  0  0  0  0  0  0  0  0  0
   11.9569   -0.8614    0.0000 H   0  0  0  0  0  0  0  0  0  0  0  0
    5.5436   -1.5045    0.0000 H   0  0  0  0  0  0  0  0  0  0  0  0
    4.4272   -2.3239    0.0000 H   0  0  0  0  0  0  0  0  0  0  0  0
    5.2156   -2.0662    0.0000 H   0  0  0  0  0  0  0  0  0  0  0  0
    5.0633    2.9961    0.0000 H   0  0  0  0  0  0  0  0  0  0  0  0
    5.2277    2.2162    0.0000 H   0  0  0  0  0  0  0  0  0  0  0  0
    4.5749    1.2645    0.0000 H   0  0  0  0  0  0  0  0  0  0  0  0
   12.0311    2.8359    0.0000 H   0  0  0  0  0  0  0  0  0  0  0  0
    8.0279    0.0097    0.0000 H   0  0  0  0  0  0  0  0  0  0  0  0
    2.8660    0.6678    0.0000 H   0  0  0  0  0  0  0  0  0  0  0  0
    2.8660   -2.5722    0.0000 H   0  0  0  0  0  0  0  0  0  0  0  0
   12.7127    0.3439    0.0000 H   0  0  0  0  0  0  0  0  0  0  0  0
   13.5882    0.2965    0.0000 H   0  0  0  0  0  0  0  0  0  0  0  0
   13.6647    1.7086    0.0000 H   0  0  0  0  0  0  0  0  0  0  0  0
   13.7121    2.5842    0.0000 H   0  0  0  0  0  0  0  0  0  0  0  0
   12.8366    2.6316    0.0000 H   0  0  0  0  0  0  0  0  0  0  0  0
   11.3480    1.2959    0.0000 H   0  0  0  0  0  0  0  0  0  0  0  0
   11.3005    0.4204    0.0000 H   0  0  0  0  0  0  0  0  0  0  0  0
   12.1761    0.3730    0.0000 H   0  0  0  0  0  0  0  0  0  0  0  0
   13.6356    1.1720    0.0000 H   0  0  0  0  0  0  0  0  0  0  0  0
    6.5719   -1.4892    0.0000 H   0  0  0  0  0  0  0  0  0  0  0  0
    9.8171   -2.2384    0.0000 H   0  0  0  0  0  0  0  0  0  0  0  0
    1.4631   -0.1422    0.0000 H   0  0  0  0  0  0  0  0  0  0  0  0
    1.4631   -1.7622    0.0000 H   0  0  0  0  0  0  0  0  0  0  0  0
    7.3135    3.3993    0.0000 H   0  0  0  0  0  0  0  0  0  0  0  0
    4.6464    4.2710    0.0000 H   0  0  0  0  0  0  0  0  0  0  0  0
    7.8168    4.9392    0.0000 H   0  0  0  0  0  0  0  0  0  0  0  0
    5.1497    5.8109    0.0000 H   0  0  0  0  0  0  0  0  0  0  0  0
    8.9795   -4.0738    0.0000 H   0  0  0  0  0  0  0  0  0  0  0  0
   12.0592   -5.0804    0.0000 H   0  0  0  0  0  0  0  0  0  0  0  0
    6.7349    6.1450    0.0000 H   0  0  0  0  0  0  0  0  0  0  0  0
    9.3136   -5.6590    0.0000 H   0  0  0  0  0  0  0  0  0  0  0  0
   10.8534   -6.1623    0.0000 H   0  0  0  0  0  0  0  0  0  0  0  0
  1 15  1  0  0  0  0
  1 72  1  0  0  0  0
  2 21  1  0  0  0  0
  2 84  1  0  0  0  0
  3 19  2  0  0  0  0
  4 28  1  0  0  0  0
  4 39  1  0  0  0  0
  5 24  2  0  0  0  0
  6 10  1  0  0  0  0
  6 12  1  0  0  0  0
  6 13  1  0  0  0  0
  7 11  1  0  0  0  0
  7 14  1  0  0  0  0
  7 20  1  0  0  0  0
  8 18  1  0  0  0  0
  8 24  1  0  0  0  0
  8 70  1  0  0  0  0
  9 19  1  0  0  0  0
  9 27  1  0  0  0  0
  9 71  1  0  0  0  0
 10 11  1  0  0  0  0
 10 19  1  0  0  0  0
 10 49  1  0  0  0  0
 11 50  1  0  0  0  0
 11 51  1  0  0  0  0
 12 14  1  0  0  0  0
 12 52  1  0  0  0  0
 12 53  1  0  0  0  0
 13 15  1  0  0  0  0
 13 54  1  0  0  0  0
 13 55  1  0  0  0  0
 14 56  1  0  0  0  0
 14 57  1  0  0  0  0
 15 16  1  0  0  0  0
 15 58  1  0  0  0  0
 16 17  1  0  0  0  0
 16 59  1  0  0  0  0
 16 60  1  0  0  0  0
 17 24  1  0  0  0  0
 17 25  1  0  0  0  0
 17 61  1  0  0  0  0
 18 21  1  0  0  0  0
 18 23  1  0  0  0  0
 18 62  1  0  0  0  0
 20 28  1  0  0  0  0
 20 63  1  0  0  0  0
 20 64  1  0  0  0  0
 21 22  1  0  0  0  0
 21 65  1  0  0  0  0
 22 26  1  0  0  0  0
 22 66  1  0  0  0  0
 22 67  1  0  0  0  0
 23 26  1  0  0  0  0
 23 29  2  0  0  0  0
 25 30  1  0  0  0  0
 25 68  1  0  0  0  0
 25 69  1  0  0  0  0
 26 31  2  0  0  0  0
 27 32  1  0  0  0  0
 27 33  1  0  0  0  0
 27 34  1  0  0  0  0
 28 35  2  0  0  0  0
 29 36  1  0  0  0  0
 29 73  1  0  0  0  0
 30 40  2  0  0  0  0
 30 41  1  0  0  0  0
 31 37  1  0  0  0  0
 31 74  1  0  0  0  0
 32 75  1  0  0  0  0
 32 76  1  0  0  0  0
 32 83  1  0  0  0  0
 33 77  1  0  0  0  0
 33 78  1  0  0  0  0
 33 79  1  0  0  0  0
 34 80  1  0  0  0  0
 34 81  1  0  0  0  0
 34 82  1  0  0  0  0
 35 38  1  0  0  0  0
 35 85  1  0  0  0  0
 36 37  2  0  0  0  0
 36 86  1  0  0  0  0
 37 87  1  0  0  0  0
 38 39  1  0  0  0  0
 38 44  2  0  0  0  0
 39 45  2  0  0  0  0
 40 42  1  0  0  0  0
 40 88  1  0  0  0  0
 41 43  2  0  0  0  0
 41 89  1  0  0  0  0
 42 46  2  0  0  0  0
 42 90  1  0  0  0  0
 43 46  1  0  0  0  0
 43 91  1  0  0  0  0
 44 47  1  0  0  0  0
 44 92  1  0  0  0  0
 45 48  1  0  0  0  0
 45 93  1  0  0  0  0
 46 94  1  0  0  0  0
 47 48  2  0  0  0  0
 47 95  1  0  0  0  0
 48 96  1  0  0  0  0
M  END
> <PUBCHEM_COMPOUND_CID>
4318

> <PUBCHEM_COMPOUND_CANONICALIZED>
1

> <PUBCHEM_CACTVS_COMPLEXITY>
1060

> <PUBCHEM_CACTVS_HBOND_ACCEPTOR>
7

> <PUBCHEM_CACTVS_HBOND_DONOR>
4

> <PUBCHEM_CACTVS_ROTATABLE_BOND>
12

> <PUBCHEM_CACTVS_SUBSKEYS>
AAADcfB/uAAAAAAAAAAAAAAAAAAAAaIAAAA8YMEAAAAAAGgB9AAAHgAQCAAADbzhmAYyBsPABkCIAqFSEACCCAAkIAAIiIGODMgOdjqE9TuXeSjk1hGYqYe62fKOgAAAAAAYAAAAAAAAADAAAKAACQgAAA==

> <PUBCHEM_IUPAC_OPENEYE_NAME>
4-(benzofuran-2-ylmethyl)-1-[4-benzyl-2-hydroxy-5-[(2-hydroxyindan-1-yl)amino]-5-oxo-pentyl]-N-tert-butyl-piperazine-2-carboxamide

> <PUBCHEM_IUPAC_CAS_NAME>
4-(2-benzofuranylmethyl)-N-tert-butyl-1-[2-hydroxy-5-[(2-hydroxy-2,3-dihydro-1H-inden-1-yl)amino]-5-oxo-4-(phenylmethyl)pentyl]-2-piperazinecarboxamide

> <PUBCHEM_IUPAC_NAME>
4-(1-benzofuran-2-ylmethyl)-1-[4-benzyl-2-hydroxy-5-[(2-hydroxy-2,3-dihydro-1H-inden-1-yl)amino]-5-oxopentyl]-N-tert-butylpiperazine-2-carboxamide

> <PUBCHEM_IUPAC_SYSTEMATIC_NAME>
4-(1-benzofuran-2-ylmethyl)-N-tert-butyl-1-[2-oxidanyl-5-[(2-oxidanyl-2,3-dihydro-1H-inden-1-yl)amino]-5-oxidanylidene-4-(phenylmethyl)pentyl]piperazine-2-carboxamide

> <PUBCHEM_IUPAC_TRADITIONAL_NAME>
4-(benzofuran-2-ylmethyl)-1-[4-benzyl-2-hydroxy-5-[(2-hydroxyindan-1-yl)amino]-5-keto-pentyl]-N-tert-butyl-piperazine-2-carboxamide

> <PUBCHEM_IUPAC_INCHI>
InChI=1S/C39H48N4O5/c1-39(2,3)41-38(47)33-25-42(24-31-21-28-14-8-10-16-35(28)48-31)17-18-43(33)23-30(44)20-29(19-26-11-5-4-6-12-26)37(46)40-36-32-15-9-7-13-27(32)22-34(36)45/h4-16,21,29-30,33-34,36,44-45H,17-20,22-25H2,1-3H3,(H,40,46)(H,41,47)

> <PUBCHEM_IUPAC_INCHIKEY>
AOMZDQMIOCTPQP-UHFFFAOYSA-N

> <PUBCHEM_XLOGP3_AA>
4.3

> <PUBCHEM_EXACT_MASS>
652.362471

> <PUBCHEM_MOLECULAR_FORMULA>
C39H48N4O5

> <PUBCHEM_MOLECULAR_WEIGHT>
652.82222

> <PUBCHEM_OPENEYE_CAN_SMILES>
CC(C)(C)NC(=O)C1CN(CCN1CC(CC(CC2=CC=CC=C2)C(=O)NC3C(CC4=CC=CC=C34)O)O)CC5=CC6=CC=CC=C6O5

> <PUBCHEM_OPENEYE_ISO_SMILES>
CC(C)(C)NC(=O)C1CN(CCN1CC(CC(CC2=CC=CC=C2)C(=O)NC3C(CC4=CC=CC=C34)O)O)CC5=CC6=CC=CC=C6O5

> <PUBCHEM_CACTVS_TPSA>
118

> <PUBCHEM_MONOISOTOPIC_WEIGHT>
652.362471

> <PUBCHEM_TOTAL_CHARGE>
0

> <PUBCHEM_HEAVY_ATOM_COUNT>
48

> <PUBCHEM_ATOM_DEF_STEREO_COUNT>
0

> <PUBCHEM_ATOM_UDEF_STEREO_COUNT>
5

> <PUBCHEM_BOND_DEF_STEREO_COUNT>
0

> <PUBCHEM_BOND_UDEF_STEREO_COUNT>
0

> <PUBCHEM_ISOTOPIC_ATOM_COUNT>
0

> <PUBCHEM_COMPONENT_COUNT>
1

> <PUBCHEM_CACTVS_TAUTO_COUNT>
4

> <PUBCHEM_COORDINATE_TYPE>
1
5
255

> <PUBCHEM_BONDANNOTATIONS>
15  1  3
10  19  3
17  25  3
21  2  3
23  26  8
23  29  8
26  31  8
28  35  8
29  36  8
30  40  8
30  41  8
31  37  8
35  38  8
36  37  8
38  39  8
38  44  8
39  45  8
4  28  8
4  39  8
40  42  8
41  43  8
42  46  8
43  46  8
44  47  8
45  48  8
47  48  8
18  8  3

$$$$

