17395514
  -OEChem-06241222503D

 39 40  0     0  0  0  0  0  0999 V2000
   -3.3765    1.4125    0.5144 O   0  0  0  0  0  0  0  0  0  0  0  0
    0.8330   -1.3653   -0.2361 O   0  0  0  0  0  0  0  0  0  0  0  0
    2.8396    0.4891    0.1391 N   0  0  0  0  0  0  0  0  0  0  0  0
    3.4410    0.5519   -1.0612 N   0  0  0  0  0  0  0  0  0  0  0  0
   -0.8575    0.2190    0.1733 N   0  0  0  0  0  0  0  0  0  0  0  0
    1.4467    0.9090    0.2615 C   0  0  0  0  0  0  0  0  0  0  0  0
    3.6450    0.0198    1.1350 C   0  0  0  0  0  0  0  0  0  0  0  0
    4.8571   -0.2432    0.5450 C   0  0  0  0  0  0  0  0  0  0  0  0
    4.6731    0.1033   -0.8069 C   0  0  0  0  0  0  0  0  0  0  0  0
    0.4659   -0.2265    0.0338 C   0  0  0  0  0  0  0  0  0  0  0  0
   -2.0352   -0.5203    0.0409 C   0  0  0  0  0  0  0  0  0  0  0  0
    3.1943   -0.1310    2.5308 C   0  0  0  0  0  0  0  0  0  0  0  0
   -3.2794    0.0867    0.2134 C   0  0  0  0  0  0  0  0  0  0  0  0
    5.6600    0.0185   -1.8964 C   0  0  0  0  0  0  0  0  0  0  0  0
   -1.9587   -1.8786   -0.2670 C   0  0  0  0  0  0  0  0  0  0  0  0
   -4.4467   -0.6649    0.0778 C   0  0  0  0  0  0  0  0  0  0  0  0
   -3.1261   -2.6300   -0.4025 C   0  0  0  0  0  0  0  0  0  0  0  0
   -4.3700   -2.0232   -0.2300 C   0  0  0  0  0  0  0  0  0  0  0  0
   -4.0868    2.2355   -0.4082 C   0  0  0  0  0  0  0  0  0  0  0  0
   -3.5190    3.6378   -0.3567 C   0  0  0  0  0  0  0  0  0  0  0  0
    1.2743    1.6965   -0.4809 H   0  0  0  0  0  0  0  0  0  0  0  0
    1.3018    1.3377    1.2579 H   0  0  0  0  0  0  0  0  0  0  0  0
    5.7446   -0.6294    1.0257 H   0  0  0  0  0  0  0  0  0  0  0  0
    2.9814    0.8444    2.9795 H   0  0  0  0  0  0  0  0  0  0  0  0
    2.2922   -0.7482    2.5909 H   0  0  0  0  0  0  0  0  0  0  0  0
    3.9656   -0.6146    3.1396 H   0  0  0  0  0  0  0  0  0  0  0  0
   -0.9902    1.2030    0.3985 H   0  0  0  0  0  0  0  0  0  0  0  0
    5.8370    1.0055   -2.3360 H   0  0  0  0  0  0  0  0  0  0  0  0
    6.6203   -0.3645   -1.5357 H   0  0  0  0  0  0  0  0  0  0  0  0
    5.3073   -0.6523   -2.6866 H   0  0  0  0  0  0  0  0  0  0  0  0
   -1.0380   -2.4240   -0.4157 H   0  0  0  0  0  0  0  0  0  0  0  0
   -5.4230   -0.2088    0.2177 H   0  0  0  0  0  0  0  0  0  0  0  0
   -3.0679   -3.6880   -0.6416 H   0  0  0  0  0  0  0  0  0  0  0  0
   -5.2788   -2.6089   -0.3334 H   0  0  0  0  0  0  0  0  0  0  0  0
   -5.1456    2.2528   -0.1280 H   0  0  0  0  0  0  0  0  0  0  0  0
   -3.9974    1.8481   -1.4309 H   0  0  0  0  0  0  0  0  0  0  0  0
   -4.0493    4.3003   -1.0464 H   0  0  0  0  0  0  0  0  0  0  0  0
   -2.4557    3.6322   -0.6187 H   0  0  0  0  0  0  0  0  0  0  0  0
   -3.5948    4.0478    0.6559 H   0  0  0  0  0  0  0  0  0  0  0  0
  1 13  1  0  0  0  0
  1 19  1  0  0  0  0
  2 10  2  0  0  0  0
  3  4  1  0  0  0  0
  3  6  1  0  0  0  0
  3  7  1  0  0  0  0
  4  9  2  0  0  0  0
  5 10  1  0  0  0  0
  5 11  1  0  0  0  0
  5 27  1  0  0  0  0
  6 10  1  0  0  0  0
  6 21  1  0  0  0  0
  6 22  1  0  0  0  0
  7  8  2  0  0  0  0
  7 12  1  0  0  0  0
  8  9  1  0  0  0  0
  8 23  1  0  0  0  0
  9 14  1  0  0  0  0
 11 13  1  0  0  0  0
 11 15  2  0  0  0  0
 12 24  1  0  0  0  0
 12 25  1  0  0  0  0
 12 26  1  0  0  0  0
 13 16  2  0  0  0  0
 14 28  1  0  0  0  0
 14 29  1  0  0  0  0
 14 30  1  0  0  0  0
 15 17  1  0  0  0  0
 15 31  1  0  0  0  0
 16 18  1  0  0  0  0
 16 32  1  0  0  0  0
 17 18  2  0  0  0  0
 17 33  1  0  0  0  0
 18 34  1  0  0  0  0
 19 20  1  0  0  0  0
 19 35  1  0  0  0  0
 19 36  1  0  0  0  0
 20 37  1  0  0  0  0
 20 38  1  0  0  0  0
 20 39  1  0  0  0  0
M  END
> <PUBCHEM_COMPOUND_CID>
17395514

> <PUBCHEM_CONFORMER_RMSD>
0.8

> <PUBCHEM_CONFORMER_DIVERSEORDER>
1
22
104
48
126
97
125
44
65
95
90
78
127
45
62
128
70
60
96
6
27
100
129
59
103
14
64
108
83
38
55
49
35
93
61
112
8
42
113
16
110
63
102
2
82
33
15
109
88
111
43
92
124
66
75
34
94
56
74
9
91
52
40
51
89
121
20
76
5
29
101
58
115
99
7
13
122
46
77
10
31
117
18
107
98
71
36
80
84
53
21
54
39
17
24
57
72
26
3
87
73
69
47
32
25
118
23
114
105
116
50
106
41
28
119
81
11
120
68
86
123
85
67
19
12
4
37
30
79

> <PUBCHEM_MMFF94_PARTIAL_CHARGES>
25
1 -0.36
10 0.57
11 0.12
12 0.18
13 0.08
14 0.18
15 -0.15
16 -0.15
17 -0.15
18 -0.15
19 0.28
2 -0.57
23 0.15
27 0.37
3 0.31
31 0.15
32 0.15
33 0.15
34 0.15
4 -0.71
5 -0.55
6 0.32
7 -0.33
8 -0.15
9 0.11

> <PUBCHEM_EFFECTIVE_ROTOR_COUNT>
6

> <PUBCHEM_PHARMACOPHORE_FEATURES>
6
1 1 acceptor
1 2 acceptor
1 4 acceptor
1 5 donor
5 3 4 7 8 9 rings
6 11 13 15 16 17 18 rings

> <PUBCHEM_HEAVY_ATOM_COUNT>
20

> <PUBCHEM_ATOM_DEF_STEREO_COUNT>
0

> <PUBCHEM_ATOM_UDEF_STEREO_COUNT>
0

> <PUBCHEM_BOND_DEF_STEREO_COUNT>
0

> <PUBCHEM_BOND_UDEF_STEREO_COUNT>
0

> <PUBCHEM_ISOTOPIC_ATOM_COUNT>
0

> <PUBCHEM_COMPONENT_COUNT>
1

> <PUBCHEM_CACTVS_TAUTO_COUNT>
2

> <PUBCHEM_CONFORMER_ID>
01096F3A00000001

> <PUBCHEM_MMFF94_ENERGY>
47.7416

> <PUBCHEM_FEATURE_SELFOVERLAP>
30.446

> <PUBCHEM_SHAPE_FINGERPRINT>
10615611 76 17560216098982529557
10670039 82 18412541028855042620
10680689 15 18410848841836811923
10912923 1 17704356567451679688
11056379 131 18411133615670581503
11370993 144 14476686385386874541
11545043 162 18040152911895787378
11796584 16 18261107539363105486
12107183 9 17839756094210239122
12236239 1 17846781792980747254
12390115 104 18116142445915460033
12403259 226 18115876183337917121
12403259 415 17894351064092256296
12596602 18 16988836198928157185
12616971 3 17346603006240287144
12788726 201 18272093773479426307
13167823 11 18273218581894928098
13583140 156 17749122087985949454
13675066 3 17676211225848967242
13760787 5 16917072161583238042
14251752 14 18339355370932570030
14294032 229 18339356483540765157
14508225 48 18118699734015148983
15042514 8 18191303763620887743
15806764 133 17822292357768861016
15961568 22 18122352276614099336
16752209 62 18410580552315131346
17818456 19 18053116299900259672
17844677 252 18408601431643577792
18186145 218 17676205758250215058
19078846 21 18272943734300681488
20645477 56 18334852857768394857
20645477 70 16298382466334142958
21033648 29 17240494606051703488
21033650 10 18197753653136228724
21065201 7 18333454226979528258
21267235 1 18265043649119517911
22224240 67 10807392862118104343
2297311 6 18334848377859133175
2306618 200 18187640298260922041
23175994 123 16950559956885975347
23402539 116 18262245426481154991
23557571 272 18187918495834941053
23559900 14 18113900403518092616
3545911 37 18259980500840964571
4214541 1 18408321085905369857
543368 44 17631722756327634372
559249 180 18339647844719541498
573450 72 18343313569014722067
6327066 14 18056200404800879261
90127 26 18340197510470790464

> <PUBCHEM_SHAPE_MULTIPOLES>
384.91
12.57
2.61
1.35
8.42
1.63
0.45
0.82
-2.49
-6.19
-0.54
2.73
-0.01
-0.21

> <PUBCHEM_SHAPE_SELFOVERLAP>
804.19

> <PUBCHEM_SHAPE_VOLUME>
220.2

> <PUBCHEM_COORDINATE_TYPE>
2
5
10

$$$$

