854192
  -OEChem-06241222473D

 31 31  0     1  0  0  0  0  0999 V2000
    5.3199    1.2879   -0.3563 Br  0  0  0  0  0  0  0  0  0  0  0  0
   -0.4649   -2.0526    1.0147 O   0  0  0  0  0  0  0  0  0  0  0  0
   -1.3288   -0.3726   -0.3301 N   0  0  0  0  0  0  0  0  0  0  0  0
   -2.7106   -0.7845   -0.2467 C   0  0  1  0  0  0  0  0  0  0  0  0
   -3.6605    0.4169   -0.3550 C   0  0  0  0  0  0  0  0  0  0  0  0
   -3.3820    1.4836    0.7083 C   0  0  0  0  0  0  0  0  0  0  0  0
   -3.0076   -1.8105   -1.3359 C   0  0  0  0  0  0  0  0  0  0  0  0
   -4.3184    2.6729    0.5596 C   0  0  0  0  0  0  0  0  0  0  0  0
   -0.3096   -1.0531    0.3181 C   0  0  0  0  0  0  0  0  0  0  0  0
    1.0542   -0.4872    0.1544 C   0  0  0  0  0  0  0  0  0  0  0  0
    1.9902   -0.7074    1.1436 C   0  0  0  0  0  0  0  0  0  0  0  0
    1.3409    0.2416   -0.9813 C   0  0  0  0  0  0  0  0  0  0  0  0
    3.2703   -0.1749    0.9902 C   0  0  0  0  0  0  0  0  0  0  0  0
    2.6211    0.7740   -1.1347 C   0  0  0  0  0  0  0  0  0  0  0  0
    3.5858    0.5658   -0.1490 C   0  0  0  0  0  0  0  0  0  0  0  0
   -2.8658   -1.2653    0.7272 H   0  0  0  0  0  0  0  0  0  0  0  0
   -4.6978    0.0715   -0.2629 H   0  0  0  0  0  0  0  0  0  0  0  0
   -3.5634    0.8732   -1.3490 H   0  0  0  0  0  0  0  0  0  0  0  0
   -3.5034    1.0499    1.7077 H   0  0  0  0  0  0  0  0  0  0  0  0
   -2.3508    1.8459    0.6346 H   0  0  0  0  0  0  0  0  0  0  0  0
   -4.0461   -2.1527   -1.2780 H   0  0  0  0  0  0  0  0  0  0  0  0
   -2.8415   -1.3895   -2.3339 H   0  0  0  0  0  0  0  0  0  0  0  0
   -2.3585   -2.6875   -1.2373 H   0  0  0  0  0  0  0  0  0  0  0  0
   -1.1338    0.4581   -0.8776 H   0  0  0  0  0  0  0  0  0  0  0  0
   -4.1949    3.1498   -0.4180 H   0  0  0  0  0  0  0  0  0  0  0  0
   -5.3636    2.3644    0.6625 H   0  0  0  0  0  0  0  0  0  0  0  0
   -4.1075    3.4202    1.3311 H   0  0  0  0  0  0  0  0  0  0  0  0
    1.7590   -1.2770    2.0387 H   0  0  0  0  0  0  0  0  0  0  0  0
    0.6339    0.3955   -1.7895 H   0  0  0  0  0  0  0  0  0  0  0  0
    4.0101   -0.3450    1.7683 H   0  0  0  0  0  0  0  0  0  0  0  0
    2.8536    1.3419   -2.0320 H   0  0  0  0  0  0  0  0  0  0  0  0
  1 15  1  0  0  0  0
  2  9  2  0  0  0  0
  3  4  1  0  0  0  0
  3  9  1  0  0  0  0
  3 24  1  0  0  0  0
  4  5  1  0  0  0  0
  4  7  1  0  0  0  0
  4 16  1  0  0  0  0
  5  6  1  0  0  0  0
  5 17  1  0  0  0  0
  5 18  1  0  0  0  0
  6  8  1  0  0  0  0
  6 19  1  0  0  0  0
  6 20  1  0  0  0  0
  7 21  1  0  0  0  0
  7 22  1  0  0  0  0
  7 23  1  0  0  0  0
  8 25  1  0  0  0  0
  8 26  1  0  0  0  0
  8 27  1  0  0  0  0
  9 10  1  0  0  0  0
 10 11  2  0  0  0  0
 10 12  1  0  0  0  0
 11 13  1  0  0  0  0
 11 28  1  0  0  0  0
 12 14  2  0  0  0  0
 12 29  1  0  0  0  0
 13 15  2  0  0  0  0
 13 30  1  0  0  0  0
 14 15  1  0  0  0  0
 14 31  1  0  0  0  0
M  END
> <PUBCHEM_COMPOUND_CID>
854192

> <PUBCHEM_CONFORMER_RMSD>
0.6

> <PUBCHEM_CONFORMER_DIVERSEORDER>
1
15
24
25
20
21
16
12
9
23
18
8
10
11
19
13
2
26
14
6
17
3
22
7
4
5

> <PUBCHEM_MMFF94_PARTIAL_CHARGES>
16
1 -0.11
10 0.09
11 -0.15
12 -0.15
13 -0.15
14 -0.15
15 0.11
2 -0.57
24 0.37
28 0.15
29 0.15
3 -0.73
30 0.15
31 0.15
4 0.3
9 0.54

> <PUBCHEM_EFFECTIVE_ROTOR_COUNT>
5

> <PUBCHEM_PHARMACOPHORE_FEATURES>
5
1 1 hydrophobe
1 2 acceptor
1 3 donor
1 8 hydrophobe
6 10 11 12 13 14 15 rings

> <PUBCHEM_HEAVY_ATOM_COUNT>
15

> <PUBCHEM_ATOM_DEF_STEREO_COUNT>
1

> <PUBCHEM_ATOM_UDEF_STEREO_COUNT>
0

> <PUBCHEM_BOND_DEF_STEREO_COUNT>
0

> <PUBCHEM_BOND_UDEF_STEREO_COUNT>
0

> <PUBCHEM_ISOTOPIC_ATOM_COUNT>
0

> <PUBCHEM_COMPONENT_COUNT>
1

> <PUBCHEM_CACTVS_TAUTO_COUNT>
2

> <PUBCHEM_CONFORMER_ID>
000D08B000000001

> <PUBCHEM_MMFF94_ENERGY>
26.4376

> <PUBCHEM_FEATURE_SELFOVERLAP>
25.371

> <PUBCHEM_SHAPE_FINGERPRINT>
10382601 240 17775005760108994186
10465860 228 18270116966893138915
10498660 4 17896041104218124161
10646746 165 18186524293426199864
11046707 91 9367348119593256337
12500047 106 17821450166026388127
12633257 1 15553863556148127361
12644460 14 17060348435446270880
12916748 109 18410566267242984755
14123260 362 18410006641742119089
14144814 61 17846788381576669358
14251764 38 18119812404906911280
14251764 75 17827628477073535097
14739800 52 18119831131349106568
15209294 21 18341896298600624908
15775835 57 18411135878896618505
18186145 218 18060139864108867278
20300324 65 18262521386081398079
20645477 56 17894625951095419771
20645477 70 16486438549639746370
20871999 31 17458069253149318373
21426921 1 18187929426600536391
21713013 43 15358273597504483541
22926399 65 18187363250694185041
23402539 116 18334017168611877988
23402655 69 18408041823100593332
23557571 272 17676203537857494413
23559900 14 17604142740233068766
3268164 11 17822304470067012221
3472631 163 18334011713866840149
4028521 119 17749389312546301209
441001 317 18335702693983059144
474 4 18131349726212904665
5104073 3 17775007839337480520
633830 44 18343021129108187510
76465 3 8646765577886250856
7808743 9 18334574680905107145

> <PUBCHEM_SHAPE_MULTIPOLES>
303.78
9.76
2.07
1.19
2.65
0.69
-0.04
6.29
-0.71
-2.91
0.24
0.22
-0.25
-1.55

> <PUBCHEM_SHAPE_SELFOVERLAP>
599.012

> <PUBCHEM_SHAPE_VOLUME>
186.2

> <PUBCHEM_COORDINATE_TYPE>
2
5
10

$$$$

