17395545
  -OEChem-06241222502D

 57 60  0     0  0  0  0  0  0999 V2000
    6.3092   -1.8817    0.0000 S   0  0  0  0  0  0  0  0  0  0  0  0
    7.1753   -0.3817    0.0000 O   0  0  0  0  0  0  0  0  0  0  0  0
    3.4945   -0.6793    0.0000 O   0  0  0  0  0  0  0  0  0  0  0  0
   11.3560    1.4547    0.0000 N   0  0  0  0  0  0  0  0  0  0  0  0
   10.8560    2.3207    0.0000 N   0  0  0  0  0  0  0  0  0  0  0  0
    8.9073   -0.3817    0.0000 N   0  0  0  0  0  0  0  0  0  0  0  0
    7.1753   -3.3817    0.0000 N   0  0  0  0  0  0  0  0  0  0  0  0
    4.4727   -0.8872    0.0000 N   0  0  0  0  0  0  0  0  0  0  0  0
    9.7734    1.1183    0.0000 C   0  0  0  0  0  0  0  0  0  0  0  0
   10.6869    0.7115    0.0000 C   0  0  0  0  0  0  0  0  0  0  0  0
    9.8779    2.1128    0.0000 C   0  0  0  0  0  0  0  0  0  0  0  0
   12.3505    1.3502    0.0000 C   0  0  0  0  0  0  0  0  0  0  0  0
    8.9073    0.6183    0.0000 C   0  0  0  0  0  0  0  0  0  0  0  0
   10.8948   -0.2666    0.0000 C   0  0  0  0  0  0  0  0  0  0  0  0
   12.9383    2.1592    0.0000 C   0  0  0  0  0  0  0  0  0  0  0  0
    9.1347    2.7819    0.0000 C   0  0  0  0  0  0  0  0  0  0  0  0
   13.9329    2.0546    0.0000 C   0  0  0  0  0  0  0  0  0  0  0  0
   12.5316    3.0727    0.0000 C   0  0  0  0  0  0  0  0  0  0  0  0
    8.0413   -0.8817    0.0000 C   0  0  0  0  0  0  0  0  0  0  0  0
    8.0413   -1.8817    0.0000 C   0  0  0  0  0  0  0  0  0  0  0  0
   14.5206    2.8637    0.0000 C   0  0  0  0  0  0  0  0  0  0  0  0
   13.1194    3.8817    0.0000 C   0  0  0  0  0  0  0  0  0  0  0  0
   14.1139    3.7772    0.0000 C   0  0  0  0  0  0  0  0  0  0  0  0
    7.1753   -2.3817    0.0000 C   0  0  0  0  0  0  0  0  0  0  0  0
    8.9073   -2.3817    0.0000 C   0  0  0  0  0  0  0  0  0  0  0  0
    5.4432   -2.3817    0.0000 C   0  0  0  0  0  0  0  0  0  0  0  0
    8.9073   -3.3817    0.0000 C   0  0  0  0  0  0  0  0  0  0  0  0
    4.5772   -1.8817    0.0000 C   0  0  0  0  0  0  0  0  0  0  0  0
    8.0413   -3.8817    0.0000 C   0  0  0  0  0  0  0  0  0  0  0  0
    3.6636   -2.2885    0.0000 C   0  0  0  0  0  0  0  0  0  0  0  0
    2.9945   -1.5453    0.0000 C   0  0  0  0  0  0  0  0  0  0  0  0
    2.0000   -1.6498    0.0000 C   0  0  0  0  0  0  0  0  0  0  0  0
   12.1797    0.7542    0.0000 H   0  0  0  0  0  0  0  0  0  0  0  0
   12.9078    1.0784    0.0000 H   0  0  0  0  0  0  0  0  0  0  0  0
    8.6953    1.2009    0.0000 H   0  0  0  0  0  0  0  0  0  0  0  0
    8.2967    0.5106    0.0000 H   0  0  0  0  0  0  0  0  0  0  0  0
   10.2884   -0.3955    0.0000 H   0  0  0  0  0  0  0  0  0  0  0  0
   11.0237   -0.8731    0.0000 H   0  0  0  0  0  0  0  0  0  0  0  0
   11.5013   -0.1377    0.0000 H   0  0  0  0  0  0  0  0  0  0  0  0
    9.5496    3.2427    0.0000 H   0  0  0  0  0  0  0  0  0  0  0  0
    8.6740    3.1968    0.0000 H   0  0  0  0  0  0  0  0  0  0  0  0
    8.7199    2.3212    0.0000 H   0  0  0  0  0  0  0  0  0  0  0  0
    9.4443   -0.6917    0.0000 H   0  0  0  0  0  0  0  0  0  0  0  0
   14.1850    1.4882    0.0000 H   0  0  0  0  0  0  0  0  0  0  0  0
   11.9150    3.1375    0.0000 H   0  0  0  0  0  0  0  0  0  0  0  0
   15.1372    2.7988    0.0000 H   0  0  0  0  0  0  0  0  0  0  0  0
   12.8672    4.4481    0.0000 H   0  0  0  0  0  0  0  0  0  0  0  0
   14.4783    4.2788    0.0000 H   0  0  0  0  0  0  0  0  0  0  0  0
    9.4443   -2.0717    0.0000 H   0  0  0  0  0  0  0  0  0  0  0  0
    5.0447   -2.8567    0.0000 H   0  0  0  0  0  0  0  0  0  0  0  0
    5.8418   -2.8567    0.0000 H   0  0  0  0  0  0  0  0  0  0  0  0
    9.4443   -3.6917    0.0000 H   0  0  0  0  0  0  0  0  0  0  0  0
    8.0413   -4.5017    0.0000 H   0  0  0  0  0  0  0  0  0  0  0  0
    3.5348   -2.8949    0.0000 H   0  0  0  0  0  0  0  0  0  0  0  0
    1.9352   -1.0332    0.0000 H   0  0  0  0  0  0  0  0  0  0  0  0
    1.3834   -1.7147    0.0000 H   0  0  0  0  0  0  0  0  0  0  0  0
    2.0648   -2.2664    0.0000 H   0  0  0  0  0  0  0  0  0  0  0  0
  1 24  1  0  0  0  0
  1 26  1  0  0  0  0
  2 19  2  0  0  0  0
  3  8  1  0  0  0  0
  3 31  1  0  0  0  0
  4  5  1  0  0  0  0
  4 10  1  0  0  0  0
  4 12  1  0  0  0  0
  5 11  2  0  0  0  0
  6 13  1  0  0  0  0
  6 19  1  0  0  0  0
  6 43  1  0  0  0  0
  7 24  1  0  0  0  0
  7 29  2  0  0  0  0
  8 28  2  0  0  0  0
  9 10  2  0  0  0  0
  9 11  1  0  0  0  0
  9 13  1  0  0  0  0
 10 14  1  0  0  0  0
 11 16  1  0  0  0  0
 12 15  1  0  0  0  0
 12 33  1  0  0  0  0
 12 34  1  0  0  0  0
 13 35  1  0  0  0  0
 13 36  1  0  0  0  0
 14 37  1  0  0  0  0
 14 38  1  0  0  0  0
 14 39  1  0  0  0  0
 15 17  2  0  0  0  0
 15 18  1  0  0  0  0
 16 40  1  0  0  0  0
 16 41  1  0  0  0  0
 16 42  1  0  0  0  0
 17 21  1  0  0  0  0
 17 44  1  0  0  0  0
 18 22  2  0  0  0  0
 18 45  1  0  0  0  0
 19 20  1  0  0  0  0
 20 24  2  0  0  0  0
 20 25  1  0  0  0  0
 21 23  2  0  0  0  0
 21 46  1  0  0  0  0
 22 23  1  0  0  0  0
 22 47  1  0  0  0  0
 23 48  1  0  0  0  0
 25 27  2  0  0  0  0
 25 49  1  0  0  0  0
 26 28  1  0  0  0  0
 26 50  1  0  0  0  0
 26 51  1  0  0  0  0
 27 29  1  0  0  0  0
 27 52  1  0  0  0  0
 28 30  1  0  0  0  0
 29 53  1  0  0  0  0
 30 31  2  0  0  0  0
 30 54  1  0  0  0  0
 31 32  1  0  0  0  0
 32 55  1  0  0  0  0
 32 56  1  0  0  0  0
 32 57  1  0  0  0  0
M  END
> <PUBCHEM_COMPOUND_CID>
17395545

> <PUBCHEM_COMPOUND_CANONICALIZED>
1

> <PUBCHEM_CACTVS_COMPLEXITY>
605

> <PUBCHEM_CACTVS_HBOND_ACCEPTOR>
6

> <PUBCHEM_CACTVS_HBOND_DONOR>
1

> <PUBCHEM_CACTVS_ROTATABLE_BOND>
8

> <PUBCHEM_CACTVS_SUBSKEYS>
AAADceB7sABAAAAAAAAAAAAAAAAAAWLAAAA8QAAAAAAAAAAB/AAAHgQcAAAADAzF3gS+hZLYEAirA7V3VgCS1CB1qjA42LE+bNoIJvrg1dOEtYhmjhjoyccYgQAOAAAAAAAAAAAAAAAAAAAAAAAAAAAAAA==

> <PUBCHEM_IUPAC_OPENEYE_NAME>
N-[(1-benzyl-3,5-dimethyl-pyrazol-4-yl)methyl]-2-[(5-methylisoxazol-3-yl)methylsulfanyl]pyridine-3-carboxamide

> <PUBCHEM_IUPAC_CAS_NAME>
N-[[3,5-dimethyl-1-(phenylmethyl)-4-pyrazolyl]methyl]-2-[(5-methyl-3-isoxazolyl)methylthio]-3-pyridinecarboxamide

> <PUBCHEM_IUPAC_NAME>
N-[(1-benzyl-3,5-dimethylpyrazol-4-yl)methyl]-2-[(5-methyl-1,2-oxazol-3-yl)methylsulfanyl]pyridine-3-carboxamide

> <PUBCHEM_IUPAC_SYSTEMATIC_NAME>
N-[[3,5-dimethyl-1-(phenylmethyl)pyrazol-4-yl]methyl]-2-[(5-methyl-1,2-oxazol-3-yl)methylsulfanyl]pyridine-3-carboxamide

> <PUBCHEM_IUPAC_TRADITIONAL_NAME>
N-[(1-benzyl-3,5-dimethyl-pyrazol-4-yl)methyl]-2-[(5-methylisoxazol-3-yl)methylthio]nicotinamide

> <PUBCHEM_IUPAC_INCHI>
InChI=1S/C24H25N5O2S/c1-16-12-20(28-31-16)15-32-24-21(10-7-11-25-24)23(30)26-13-22-17(2)27-29(18(22)3)14-19-8-5-4-6-9-19/h4-12H,13-15H2,1-3H3,(H,26,30)

> <PUBCHEM_IUPAC_INCHIKEY>
WOBARCIMWIRQBR-UHFFFAOYSA-N

> <PUBCHEM_XLOGP3_AA>
3.6

> <PUBCHEM_EXACT_MASS>
447.172896

> <PUBCHEM_MOLECULAR_FORMULA>
C24H25N5O2S

> <PUBCHEM_MOLECULAR_WEIGHT>
447.5526

> <PUBCHEM_OPENEYE_CAN_SMILES>
CC1=CC(=NO1)CSC2=C(C=CC=N2)C(=O)NCC3=C(N(N=C3C)CC4=CC=CC=C4)C

> <PUBCHEM_OPENEYE_ISO_SMILES>
CC1=CC(=NO1)CSC2=C(C=CC=N2)C(=O)NCC3=C(N(N=C3C)CC4=CC=CC=C4)C

> <PUBCHEM_CACTVS_TPSA>
111

> <PUBCHEM_MONOISOTOPIC_WEIGHT>
447.172896

> <PUBCHEM_TOTAL_CHARGE>
0

> <PUBCHEM_HEAVY_ATOM_COUNT>
32

> <PUBCHEM_ATOM_DEF_STEREO_COUNT>
0

> <PUBCHEM_ATOM_UDEF_STEREO_COUNT>
0

> <PUBCHEM_BOND_DEF_STEREO_COUNT>
0

> <PUBCHEM_BOND_UDEF_STEREO_COUNT>
0

> <PUBCHEM_ISOTOPIC_ATOM_COUNT>
0

> <PUBCHEM_COMPONENT_COUNT>
1

> <PUBCHEM_CACTVS_TAUTO_COUNT>
2

> <PUBCHEM_COORDINATE_TYPE>
1
5
255

> <PUBCHEM_BONDANNOTATIONS>
15  17  8
15  18  8
17  21  8
18  22  8
20  24  8
20  25  8
21  23  8
22  23  8
25  27  8
27  29  8
28  30  8
3  31  8
3  8  8
30  31  8
4  10  8
4  5  8
5  11  8
7  24  8
7  29  8
8  28  8
9  10  8
9  11  8

$$$$

