4777
  -OEChem-06261200202D

 58 61  0     1  0  0  0  0  0999 V2000
    5.0474    1.0433    0.0000 P   0  0  3  0  0  0  0  0  0  0  0  0
    4.4026   -2.4099    0.0000 O   0  0  0  0  0  0  0  0  0  0  0  0
    6.7485   -3.5018    0.0000 O   0  0  0  0  0  0  0  0  0  0  0  0
    6.7523   -1.3262    0.0000 O   0  0  0  0  0  0  0  0  0  0  0  0
    5.3548    0.0917    0.0000 O   0  0  0  0  0  0  0  0  0  0  0  0
    4.7400    1.9948    0.0000 O   0  0  0  0  0  0  0  0  0  0  0  0
    5.9990    1.3506    0.0000 O   0  0  0  0  0  0  0  0  0  0  0  0
    4.0958    0.7359    0.0000 O   0  0  0  0  0  0  0  0  0  0  0  0
    4.6783   -4.1704    0.0000 N   0  0  0  0  0  0  0  0  0  0  0  0
    4.6783   -5.7799    0.0000 N   0  0  0  0  0  0  0  0  0  0  0  0
    2.8660   -3.9752    0.0000 N   0  0  0  0  0  0  0  0  0  0  0  0
    2.0000   -5.4752    0.0000 N   0  0  0  0  0  0  0  0  0  0  0  0
    2.8660   -6.9752    0.0000 N   0  0  0  0  0  0  0  0  0  0  0  0
    4.1253    3.8980    0.0000 N   0  0  0  0  0  0  0  0  0  0  0  0
    5.9405   -2.9126    0.0000 C   0  0  3  0  0  0  0  0  0  0  0  0
    5.9422   -1.9126    0.0000 C   0  0  3  0  0  0  0  0  0  0  0  0
    4.9889   -3.2199    0.0000 C   0  0  3  0  0  0  0  0  0  0  0  0
    4.9917   -1.6019    0.0000 C   0  0  3  0  0  0  0  0  0  0  0  0
    4.6844   -0.6503    0.0000 C   0  0  0  0  0  0  0  0  0  0  0  0
    3.7320   -4.4752    0.0000 C   0  0  0  0  0  0  0  0  0  0  0  0
    5.2619   -4.9752    0.0000 C   0  0  0  0  0  0  0  0  0  0  0  0
    3.7320   -5.4752    0.0000 C   0  0  0  0  0  0  0  0  0  0  0  0
    2.8660   -5.9752    0.0000 C   0  0  0  0  0  0  0  0  0  0  0  0
    5.1031    3.6884    0.0000 C   0  0  3  0  0  0  0  0  0  0  0  0
    5.4104    2.7368    0.0000 C   0  0  0  0  0  0  0  0  0  0  0  0
    5.7735    4.4304    0.0000 C   0  0  0  0  0  0  0  0  0  0  0  0
    2.0000   -4.4752    0.0000 C   0  0  0  0  0  0  0  0  0  0  0  0
    5.4661    5.3820    0.0000 C   0  0  0  0  0  0  0  0  0  0  0  0
    6.1365    6.1240    0.0000 C   0  0  0  0  0  0  0  0  0  0  0  0
    4.4883    5.5916    0.0000 C   0  0  0  0  0  0  0  0  0  0  0  0
    5.8292    7.0756    0.0000 C   0  0  0  0  0  0  0  0  0  0  0  0
    4.1810    6.5432    0.0000 C   0  0  0  0  0  0  0  0  0  0  0  0
    4.8514    7.2852    0.0000 C   0  0  0  0  0  0  0  0  0  0  0  0
    5.8425   -3.5248    0.0000 H   0  0  0  0  0  0  0  0  0  0  0  0
    6.4942   -2.1950    0.0000 H   0  0  0  0  0  0  0  0  0  0  0  0
    5.4266   -3.6591    0.0000 H   0  0  0  0  0  0  0  0  0  0  0  0
    4.3795   -1.5038    0.0000 H   0  0  0  0  0  0  0  0  0  0  0  0
    4.3035   -0.1611    0.0000 H   0  0  0  0  0  0  0  0  0  0  0  0
    4.1364   -0.9404    0.0000 H   0  0  0  0  0  0  0  0  0  0  0  0
    7.3154   -3.2506    0.0000 H   0  0  0  0  0  0  0  0  0  0  0  0
    7.3182   -1.5793    0.0000 H   0  0  0  0  0  0  0  0  0  0  0  0
    5.8819   -4.9752    0.0000 H   0  0  0  0  0  0  0  0  0  0  0  0
    4.9125    4.2784    0.0000 H   0  0  0  0  0  0  0  0  0  0  0  0
    5.7913    2.2476    0.0000 H   0  0  0  0  0  0  0  0  0  0  0  0
    5.9584    3.0270    0.0000 H   0  0  0  0  0  0  0  0  0  0  0  0
    6.1544    3.9412    0.0000 H   0  0  0  0  0  0  0  0  0  0  0  0
    6.3214    4.7205    0.0000 H   0  0  0  0  0  0  0  0  0  0  0  0
    1.4631   -4.1652    0.0000 H   0  0  0  0  0  0  0  0  0  0  0  0
    6.4590    0.9350    0.0000 H   0  0  0  0  0  0  0  0  0  0  0  0
    2.3291   -7.2852    0.0000 H   0  0  0  0  0  0  0  0  0  0  0  0
    3.4030   -7.2852    0.0000 H   0  0  0  0  0  0  0  0  0  0  0  0
    3.7096    3.4380    0.0000 H   0  0  0  0  0  0  0  0  0  0  0  0
    3.9347    4.4880    0.0000 H   0  0  0  0  0  0  0  0  0  0  0  0
    6.7428    5.9940    0.0000 H   0  0  0  0  0  0  0  0  0  0  0  0
    4.0727    5.1316    0.0000 H   0  0  0  0  0  0  0  0  0  0  0  0
    6.2448    7.5356    0.0000 H   0  0  0  0  0  0  0  0  0  0  0  0
    3.5747    6.6732    0.0000 H   0  0  0  0  0  0  0  0  0  0  0  0
    4.6608    7.8752    0.0000 H   0  0  0  0  0  0  0  0  0  0  0  0
  1  5  1  0  0  0  0
  1  6  1  0  0  0  0
  1  7  1  0  0  0  0
  1  8  2  0  0  0  0
  2 17  1  0  0  0  0
  2 18  1  0  0  0  0
  3 15  1  0  0  0  0
  3 40  1  0  0  0  0
  4 16  1  0  0  0  0
  4 41  1  0  0  0  0
  5 19  1  0  0  0  0
  6 25  1  0  0  0  0
  7 49  1  0  0  0  0
  9 17  1  0  0  0  0
  9 20  1  0  0  0  0
  9 21  1  0  0  0  0
 10 21  2  0  0  0  0
 10 22  1  0  0  0  0
 11 20  2  0  0  0  0
 11 27  1  0  0  0  0
 12 23  1  0  0  0  0
 12 27  2  0  0  0  0
 13 23  1  0  0  0  0
 13 50  1  0  0  0  0
 13 51  1  0  0  0  0
 14 24  1  0  0  0  0
 14 52  1  0  0  0  0
 14 53  1  0  0  0  0
 15 16  1  0  0  0  0
 15 17  1  0  0  0  0
 15 34  1  0  0  0  0
 16 18  1  0  0  0  0
 16 35  1  0  0  0  0
 17 36  1  0  0  0  0
 18 19  1  0  0  0  0
 18 37  1  0  0  0  0
 19 38  1  0  0  0  0
 19 39  1  0  0  0  0
 20 22  1  0  0  0  0
 21 42  1  0  0  0  0
 22 23  2  0  0  0  0
 24 25  1  0  0  0  0
 24 26  1  0  0  0  0
 24 43  1  0  0  0  0
 25 44  1  0  0  0  0
 25 45  1  0  0  0  0
 26 28  1  0  0  0  0
 26 46  1  0  0  0  0
 26 47  1  0  0  0  0
 27 48  1  0  0  0  0
 28 29  2  0  0  0  0
 28 30  1  0  0  0  0
 29 31  1  0  0  0  0
 29 54  1  0  0  0  0
 30 32  2  0  0  0  0
 30 55  1  0  0  0  0
 31 33  2  0  0  0  0
 31 56  1  0  0  0  0
 32 33  1  0  0  0  0
 32 57  1  0  0  0  0
 33 58  1  0  0  0  0
M  END
> <PUBCHEM_COMPOUND_CID>
4777

> <PUBCHEM_COMPOUND_CANONICALIZED>
1

> <PUBCHEM_CACTVS_COMPLEXITY>
689

> <PUBCHEM_CACTVS_HBOND_ACCEPTOR>
12

> <PUBCHEM_CACTVS_HBOND_DONOR>
5

> <PUBCHEM_CACTVS_ROTATABLE_BOND>
9

> <PUBCHEM_CACTVS_SUBSKEYS>
AAADceB7uAIAAAAAAAAAAAAAAAAAAWJAAAA8QAAAAAAAAFgB/AAAHgAQCCAADDzhnwY18L9MFxCgQyZjZICCgC0xEKAJ2KAoVJiLeCLA2VGeZAgvkALbiCfw8KIOAAAAAAAAAAAAAAAAAAAAAAAAAAAAAA==

> <PUBCHEM_IUPAC_OPENEYE_NAME>
(2-amino-3-phenyl-propyl) [5-(6-aminopurin-9-yl)-3,4-dihydroxy-tetrahydrofuran-2-yl]methyl hydrogen phosphate

> <PUBCHEM_IUPAC_CAS_NAME>
(2-amino-3-phenylpropyl) [5-(6-aminopurin-9-yl)-3,4-dihydroxy-2-oxolanyl]methyl hydrogen phosphate

> <PUBCHEM_IUPAC_NAME>
(2-amino-3-phenylpropyl) [5-(6-aminopurin-9-yl)-3,4-dihydroxyoxolan-2-yl]methyl hydrogen phosphate

> <PUBCHEM_IUPAC_SYSTEMATIC_NAME>
[5-(6-aminopurin-9-yl)-3,4-bis(oxidanyl)oxolan-2-yl]methyl (2-azanyl-3-phenyl-propyl) hydrogen phosphate

> <PUBCHEM_IUPAC_TRADITIONAL_NAME>
(5-adenin-9-yl-3,4-dihydroxy-tetrahydrofuran-2-yl)methyl (2-amino-3-phenyl-propyl) hydrogen phosphate

> <PUBCHEM_IUPAC_INCHI>
InChI=1S/C19H25N6O7P/c20-12(6-11-4-2-1-3-5-11)7-30-33(28,29)31-8-13-15(26)16(27)19(32-13)25-10-24-14-17(21)22-9-23-18(14)25/h1-5,9-10,12-13,15-16,19,26-27H,6-8,20H2,(H,28,29)(H2,21,22,23)

> <PUBCHEM_IUPAC_INCHIKEY>
XNEAAYNJQROQFE-UHFFFAOYSA-N

> <PUBCHEM_XLOGP3>
-4.2

> <PUBCHEM_EXACT_MASS>
480.152234

> <PUBCHEM_MOLECULAR_FORMULA>
C19H25N6O7P

> <PUBCHEM_MOLECULAR_WEIGHT>
480.411562

> <PUBCHEM_OPENEYE_CAN_SMILES>
C1=CC=C(C=C1)CC(COP(=O)(O)OCC2C(C(C(O2)N3C=NC4=C3N=CN=C4N)O)O)N

> <PUBCHEM_OPENEYE_ISO_SMILES>
C1=CC=C(C=C1)CC(COP(=O)(O)OCC2C(C(C(O2)N3C=NC4=C3N=CN=C4N)O)O)N

> <PUBCHEM_CACTVS_TPSA>
201

> <PUBCHEM_MONOISOTOPIC_WEIGHT>
480.152234

> <PUBCHEM_TOTAL_CHARGE>
0

> <PUBCHEM_HEAVY_ATOM_COUNT>
33

> <PUBCHEM_ATOM_DEF_STEREO_COUNT>
0

> <PUBCHEM_ATOM_UDEF_STEREO_COUNT>
5

> <PUBCHEM_BOND_DEF_STEREO_COUNT>
0

> <PUBCHEM_BOND_UDEF_STEREO_COUNT>
0

> <PUBCHEM_ISOTOPIC_ATOM_COUNT>
0

> <PUBCHEM_COMPONENT_COUNT>
1

> <PUBCHEM_CACTVS_TAUTO_COUNT>
3

> <PUBCHEM_COORDINATE_TYPE>
1
5
255

> <PUBCHEM_BONDANNOTATIONS>
10  21  8
10  22  8
11  20  8
11  27  8
12  23  8
12  27  8
24  14  3
18  19  3
20  22  8
22  23  8
28  29  8
28  30  8
29  31  8
15  3  3
30  32  8
31  33  8
32  33  8
16  4  3
17  9  3
9  20  8
9  21  8

$$$$

