13606
  -OEChem-06241222393D

 13 13  0     0  0  0  0  0  0999 V2000
    1.9335    0.0002    0.0003 N   0  3  0  0  0  0  0  0  0  0  0  0
    0.5539    0.0000    0.0008 C   0  0  0  0  0  0  0  0  0  0  0  0
   -0.1437    1.2080    0.0004 C   0  0  0  0  0  0  0  0  0  0  0  0
   -0.1435   -1.2081    0.0005 C   0  0  0  0  0  0  0  0  0  0  0  0
   -1.5385    1.2080   -0.0002 C   0  0  0  0  0  0  0  0  0  0  0  0
   -1.5384   -1.2080   -0.0003 C   0  0  0  0  0  0  0  0  0  0  0  0
   -2.2358    0.0000   -0.0006 C   0  0  0  0  0  0  0  0  0  0  0  0
    3.1125    0.0000   -0.0009 C   0  5  0  0  0  0  0  0  0  0  0  0
    0.3913    2.1539    0.0004 H   0  0  0  0  0  0  0  0  0  0  0  0
    0.3914   -2.1541    0.0005 H   0  0  0  0  0  0  0  0  0  0  0  0
   -2.0816    2.1485   -0.0005 H   0  0  0  0  0  0  0  0  0  0  0  0
   -2.0817   -2.1486   -0.0006 H   0  0  0  0  0  0  0  0  0  0  0  0
   -3.3219    0.0000   -0.0012 H   0  0  0  0  0  0  0  0  0  0  0  0
  1  2  1  0  0  0  0
  1  8  3  0  0  0  0
  2  3  2  0  0  0  0
  2  4  1  0  0  0  0
  3  5  1  0  0  0  0
  3  9  1  0  0  0  0
  4  6  2  0  0  0  0
  4 10  1  0  0  0  0
  5  7  2  0  0  0  0
  5 11  1  0  0  0  0
  6  7  1  0  0  0  0
  6 12  1  0  0  0  0
  7 13  1  0  0  0  0
M  CHG  2   1   1   8  -1
M  END
> <PUBCHEM_COMPOUND_CID>
13606

> <PUBCHEM_CONFORMER_RMSD>
0.4

> <PUBCHEM_CONFORMER_DIVERSEORDER>
1

> <PUBCHEM_MMFF94_PARTIAL_CHARGES>
13
1 0.23
10 0.15
11 0.15
12 0.15
13 0.15
2 0.14
3 -0.15
4 -0.15
5 -0.15
6 -0.15
7 -0.15
8 -0.37
9 0.15

> <PUBCHEM_EFFECTIVE_ROTOR_COUNT>
0

> <PUBCHEM_PHARMACOPHORE_FEATURES>
1
6 2 3 4 5 6 7 rings

> <PUBCHEM_HEAVY_ATOM_COUNT>
8

> <PUBCHEM_ATOM_DEF_STEREO_COUNT>
0

> <PUBCHEM_ATOM_UDEF_STEREO_COUNT>
0

> <PUBCHEM_BOND_DEF_STEREO_COUNT>
0

> <PUBCHEM_BOND_UDEF_STEREO_COUNT>
0

> <PUBCHEM_ISOTOPIC_ATOM_COUNT>
0

> <PUBCHEM_COMPONENT_COUNT>
1

> <PUBCHEM_CACTVS_TAUTO_COUNT>
1

> <PUBCHEM_CONFORMER_ID>
0000352600000001

> <PUBCHEM_MMFF94_ENERGY>
15.447

> <PUBCHEM_FEATURE_SELFOVERLAP>
5.074

> <PUBCHEM_SHAPE_FINGERPRINT>
10857977 72 18336557010016788432
14325111 11 18410856602958773120
16714656 1 18410573989467517471
20645464 45 17895206484565842938
20871998 184 18188204286789820367
21040471 1 18266459995477108805
23235685 24 18337958990553455301
23402655 69 18121237608832304149
23552423 10 18129100018011343340
29004967 10 16370720431104394582
369184 2 18409452487786540570

> <PUBCHEM_SHAPE_MULTIPOLES>
159.66
3.52
1.36
0.61
2.7
0
0
0
0
-0.61
0
-0.02
0
0

> <PUBCHEM_SHAPE_SELFOVERLAP>
328.271

> <PUBCHEM_SHAPE_VOLUME>
91.7

> <PUBCHEM_COORDINATE_TYPE>
2
5
10

$$$$

