13974
  -OEChem-06241222413D

 46 48  0     1  0  0  0  0  0999 V2000
    2.4273    1.7526   -1.0043 O   0  0  0  0  0  0  0  0  0  0  0  0
    0.0913   -1.6205    1.1431 O   0  0  0  0  0  0  0  0  0  0  0  0
   -1.9932    1.4538   -1.7167 O   0  0  0  0  0  0  0  0  0  0  0  0
    1.2848   -0.0757   -0.1014 N   0  0  0  0  0  0  0  0  0  0  0  0
   -1.1024   -0.1332   -0.2252 N   0  0  0  0  0  0  0  0  0  0  0  0
    2.5180   -0.7784    0.1587 C   0  0  0  0  0  0  0  0  0  0  0  0
    3.2969   -1.0047   -1.1396 C   0  0  0  0  0  0  0  0  0  0  0  0
    3.3599   -0.0213    1.1887 C   0  0  0  0  0  0  0  0  0  0  0  0
    4.6314   -1.6992   -0.8806 C   0  0  0  0  0  0  0  0  0  0  0  0
    4.6951   -0.7158    1.4438 C   0  0  0  0  0  0  0  0  0  0  0  0
    5.4682   -0.9439    0.1479 C   0  0  0  0  0  0  0  0  0  0  0  0
    1.3819    1.2096   -0.6465 C   0  0  0  0  0  0  0  0  0  0  0  0
    0.0785    1.9587   -0.6723 C   0  0  1  0  0  0  0  0  0  0  0  0
    0.0832   -0.6960    0.3234 C   0  0  0  0  0  0  0  0  0  0  0  0
   -1.1175    1.0810   -0.9346 C   0  0  0  0  0  0  0  0  0  0  0  0
   -0.1120    2.7165    0.6385 C   0  0  0  0  0  0  0  0  0  0  0  0
   -2.3467   -0.8614   -0.0932 C   0  0  0  0  0  0  0  0  0  0  0  0
   -1.3710    3.5260    0.6178 C   0  0  0  0  0  0  0  0  0  0  0  0
   -3.5498   -0.1662   -0.0661 C   0  0  0  0  0  0  0  0  0  0  0  0
   -2.3247   -2.2475    0.0044 C   0  0  0  0  0  0  0  0  0  0  0  0
   -4.7487   -0.8676    0.0606 C   0  0  0  0  0  0  0  0  0  0  0  0
   -3.5238   -2.9488    0.1310 C   0  0  0  0  0  0  0  0  0  0  0  0
   -2.3907    3.3408    1.4635 C   0  0  0  0  0  0  0  0  0  0  0  0
   -4.7358   -2.2587    0.1591 C   0  0  0  0  0  0  0  0  0  0  0  0
    2.3018   -1.7710    0.5736 H   0  0  0  0  0  0  0  0  0  0  0  0
    3.5152   -0.0830   -1.6842 H   0  0  0  0  0  0  0  0  0  0  0  0
    2.6981   -1.6205   -1.8229 H   0  0  0  0  0  0  0  0  0  0  0  0
    2.8066    0.0528    2.1335 H   0  0  0  0  0  0  0  0  0  0  0  0
    3.5745    1.0080    0.8856 H   0  0  0  0  0  0  0  0  0  0  0  0
    5.1907   -1.7882   -1.8189 H   0  0  0  0  0  0  0  0  0  0  0  0
    4.4477   -2.7196   -0.5223 H   0  0  0  0  0  0  0  0  0  0  0  0
    4.5160   -1.6800    1.9356 H   0  0  0  0  0  0  0  0  0  0  0  0
    5.2987   -0.1148    2.1333 H   0  0  0  0  0  0  0  0  0  0  0  0
    6.3861   -1.5037    0.3596 H   0  0  0  0  0  0  0  0  0  0  0  0
    5.7725    0.0237   -0.2697 H   0  0  0  0  0  0  0  0  0  0  0  0
    0.1433    2.6671   -1.5102 H   0  0  0  0  0  0  0  0  0  0  0  0
    0.7351    3.3949    0.8011 H   0  0  0  0  0  0  0  0  0  0  0  0
   -0.1120    2.0260    1.4921 H   0  0  0  0  0  0  0  0  0  0  0  0
   -1.4472    4.3162   -0.1246 H   0  0  0  0  0  0  0  0  0  0  0  0
   -3.6082    0.9167   -0.0872 H   0  0  0  0  0  0  0  0  0  0  0  0
   -1.4175   -2.8361   -0.0808 H   0  0  0  0  0  0  0  0  0  0  0  0
   -5.6920   -0.3302    0.0938 H   0  0  0  0  0  0  0  0  0  0  0  0
   -3.5157   -4.0332    0.1925 H   0  0  0  0  0  0  0  0  0  0  0  0
   -3.2760    3.9639    1.4010 H   0  0  0  0  0  0  0  0  0  0  0  0
   -2.3638    2.5689    2.2247 H   0  0  0  0  0  0  0  0  0  0  0  0
   -5.6694   -2.8049    0.2567 H   0  0  0  0  0  0  0  0  0  0  0  0
  1 12  2  0  0  0  0
  2 14  2  0  0  0  0
  3 15  2  0  0  0  0
  4  6  1  0  0  0  0
  4 12  1  0  0  0  0
  4 14  1  0  0  0  0
  5 14  1  0  0  0  0
  5 15  1  0  0  0  0
  5 17  1  0  0  0  0
  6  7  1  0  0  0  0
  6  8  1  0  0  0  0
  6 25  1  0  0  0  0
  7  9  1  0  0  0  0
  7 26  1  0  0  0  0
  7 27  1  0  0  0  0
  8 10  1  0  0  0  0
  8 28  1  0  0  0  0
  8 29  1  0  0  0  0
  9 11  1  0  0  0  0
  9 30  1  0  0  0  0
  9 31  1  0  0  0  0
 10 11  1  0  0  0  0
 10 32  1  0  0  0  0
 10 33  1  0  0  0  0
 11 34  1  0  0  0  0
 11 35  1  0  0  0  0
 12 13  1  0  0  0  0
 13 15  1  0  0  0  0
 13 16  1  0  0  0  0
 13 36  1  0  0  0  0
 16 18  1  0  0  0  0
 16 37  1  0  0  0  0
 16 38  1  0  0  0  0
 17 19  2  0  0  0  0
 17 20  1  0  0  0  0
 18 23  2  0  0  0  0
 18 39  1  0  0  0  0
 19 21  1  0  0  0  0
 19 40  1  0  0  0  0
 20 22  2  0  0  0  0
 20 41  1  0  0  0  0
 21 24  2  0  0  0  0
 21 42  1  0  0  0  0
 22 24  1  0  0  0  0
 22 43  1  0  0  0  0
 23 44  1  0  0  0  0
 23 45  1  0  0  0  0
 24 46  1  0  0  0  0
M  END
> <PUBCHEM_COMPOUND_CID>
13974

> <PUBCHEM_CONFORMER_RMSD>
0.8

> <PUBCHEM_CONFORMER_DIVERSEORDER>
1
15
17
9
6
18
3
12
16
5
4
13
2
7
8
11
14
10

> <PUBCHEM_MMFF94_PARTIAL_CHARGES>
27
1 -0.57
12 0.57
13 0.12
14 0.69
15 0.57
16 0.14
17 0.12
18 -0.29
19 -0.15
2 -0.57
20 -0.15
21 -0.15
22 -0.15
23 -0.3
24 -0.15
3 -0.57
39 0.15
4 -0.42
40 0.15
41 0.15
42 0.15
43 0.15
44 0.15
45 0.15
46 0.15
5 -0.24
6 0.3

> <PUBCHEM_EFFECTIVE_ROTOR_COUNT>
5.8

> <PUBCHEM_PHARMACOPHORE_FEATURES>
8
1 1 acceptor
1 13 anion
1 2 acceptor
1 23 hydrophobe
1 3 acceptor
6 17 19 20 21 22 24 rings
6 4 5 12 13 14 15 rings
6 6 7 8 9 10 11 rings

> <PUBCHEM_HEAVY_ATOM_COUNT>
24

> <PUBCHEM_ATOM_DEF_STEREO_COUNT>
0

> <PUBCHEM_ATOM_UDEF_STEREO_COUNT>
1

> <PUBCHEM_BOND_DEF_STEREO_COUNT>
0

> <PUBCHEM_BOND_UDEF_STEREO_COUNT>
0

> <PUBCHEM_ISOTOPIC_ATOM_COUNT>
0

> <PUBCHEM_COMPONENT_COUNT>
1

> <PUBCHEM_CACTVS_TAUTO_COUNT>
1

> <PUBCHEM_CONFORMER_ID>
0000369600000001

> <PUBCHEM_MMFF94_ENERGY>
69.6518

> <PUBCHEM_FEATURE_SELFOVERLAP>
40.594

> <PUBCHEM_SHAPE_FINGERPRINT>
10319926 262 18117857701408837442
1100329 8 18337385041505872033
11578080 2 16082469237178043345
11646440 116 18408879634266477515
116883 192 18336254713022964910
12236239 1 17060344058864416450
12403259 226 18196939860250507143
12553582 1 18272661125247168523
12714826 92 18131359621807037951
12788726 201 18339066138585565472
13009979 54 18341036446358851873
13134695 92 18191024491724237245
13140716 1 18340205185429577299
13533116 47 17906170656095624863
13583140 156 15719681961215904823
14178342 30 18266744765099924042
14787075 74 18199475359533223616
14790565 3 17474103679634935893
14866123 147 18048588511059360147
15420108 30 17321276606050208024
16752209 62 17846224379535738754
17349148 13 17346603014846474914
17980427 26 17395019742956003453
1813 80 18060417993295258350
18222031 100 18336551512464476335
19141452 34 18261112937583283975
20600515 1 17915195532786124194
21033648 29 17313965102670227002
21041028 32 18336265656794865605
21267235 1 18272928289772676579
2297311 6 18409442601057077662
23402539 116 18342464746281120070
23419403 2 18123783909303726244
23557571 272 18335987540524739474
23559900 14 18341055107659196724
23845131 108 17615680074562719201
25147074 1 18201421594014991628
266924 1 18199166448258460492
3004659 81 18130786729067948262
314173 85 18335420153611813891
335352 9 18343024385342030447
469060 322 17845646066236438281
5104073 3 18267859481181246243
7364860 26 17903917756310544417
7399639 24 18114195107690426730
81228 2 18270953647944254840
8863177 126 17415264045731263307
9709674 26 17910952444532753547

> <PUBCHEM_SHAPE_MULTIPOLES>
466.34
9.55
3.68
1.22
5.53
2.71
0.01
-7.8
1.04
-3.9
0.79
0.63
0.41
-0.17

> <PUBCHEM_SHAPE_SELFOVERLAP>
994.315

> <PUBCHEM_SHAPE_VOLUME>
253.8

> <PUBCHEM_COORDINATE_TYPE>
2
5
10

$$$$

