5209
  -OEChem-06261200342D

 39 41  0     0  0  0  0  0  0999 V2000
    8.0321   -0.7363    0.0000 O   0  0  0  0  0  0  0  0  0  0  0  0
    4.5274    0.1762    0.0000 N   0  0  0  0  0  0  0  0  0  0  0  0
    5.3364   -0.4116    0.0000 C   0  0  0  0  0  0  0  0  0  0  0  0
    5.0274   -1.3626    0.0000 C   0  0  0  0  0  0  0  0  0  0  0  0
    6.3518   -0.1793    0.0000 C   0  0  0  0  0  0  0  0  0  0  0  0
    4.0274   -1.3626    0.0000 C   0  0  0  0  0  0  0  0  0  0  0  0
    3.7183   -0.4116    0.0000 C   0  0  0  0  0  0  0  0  0  0  0  0
    5.7123   -2.1474    0.0000 C   0  0  0  0  0  0  0  0  0  0  0  0
    7.0547   -0.9480    0.0000 C   0  0  0  0  0  0  0  0  0  0  0  0
    6.6498    0.7752    0.0000 C   0  0  0  0  0  0  0  0  0  0  0  0
    6.7328   -1.9387    0.0000 C   0  0  0  0  0  0  0  0  0  0  0  0
    3.3424   -2.1474    0.0000 C   0  0  0  0  0  0  0  0  0  0  0  0
    2.7029   -0.1793    0.0000 C   0  0  0  0  0  0  0  0  0  0  0  0
    7.6255    0.9945    0.0000 C   0  0  0  0  0  0  0  0  0  0  0  0
    7.3991   -2.6844    0.0000 C   0  0  0  0  0  0  0  0  0  0  0  0
    2.3219   -1.9387    0.0000 C   0  0  0  0  0  0  0  0  0  0  0  0
    2.0000   -0.9480    0.0000 C   0  0  0  0  0  0  0  0  0  0  0  0
    7.9235    1.9490    0.0000 C   0  0  0  0  0  0  0  0  0  0  0  0
    8.8991    2.1682    0.0000 C   0  0  0  0  0  0  0  0  0  0  0  0
    7.2458    2.6844    0.0000 C   0  0  0  0  0  0  0  0  0  0  0  0
    4.5274    0.7962    0.0000 H   0  0  0  0  0  0  0  0  0  0  0  0
    5.5139   -2.7348    0.0000 H   0  0  0  0  0  0  0  0  0  0  0  0
    6.6210    1.3946    0.0000 H   0  0  0  0  0  0  0  0  0  0  0  0
    6.0349    0.8544    0.0000 H   0  0  0  0  0  0  0  0  0  0  0  0
    3.5408   -2.7348    0.0000 H   0  0  0  0  0  0  0  0  0  0  0  0
    2.5182    0.4125    0.0000 H   0  0  0  0  0  0  0  0  0  0  0  0
    8.0456    0.5385    0.0000 H   0  0  0  0  0  0  0  0  0  0  0  0
    6.9368   -3.0975    0.0000 H   0  0  0  0  0  0  0  0  0  0  0  0
    7.8122   -3.1467    0.0000 H   0  0  0  0  0  0  0  0  0  0  0  0
    7.8614   -2.2713    0.0000 H   0  0  0  0  0  0  0  0  0  0  0  0
    1.9088   -2.4010    0.0000 H   0  0  0  0  0  0  0  0  0  0  0  0
    1.3940   -0.8168    0.0000 H   0  0  0  0  0  0  0  0  0  0  0  0
    8.4487   -1.1955    0.0000 H   0  0  0  0  0  0  0  0  0  0  0  0
    9.0350    1.5633    0.0000 H   0  0  0  0  0  0  0  0  0  0  0  0
    9.5041    2.3041    0.0000 H   0  0  0  0  0  0  0  0  0  0  0  0
    8.7632    2.7731    0.0000 H   0  0  0  0  0  0  0  0  0  0  0  0
    7.7017    3.1045    0.0000 H   0  0  0  0  0  0  0  0  0  0  0  0
    6.8256    3.1403    0.0000 H   0  0  0  0  0  0  0  0  0  0  0  0
    6.7899    2.2642    0.0000 H   0  0  0  0  0  0  0  0  0  0  0  0
  1  9  1  0  0  0  0
  1 33  1  0  0  0  0
  2  3  1  0  0  0  0
  2  7  1  0  0  0  0
  2 21  1  0  0  0  0
  3  4  2  0  0  0  0
  3  5  1  0  0  0  0
  4  6  1  0  0  0  0
  4  8  1  0  0  0  0
  5  9  2  0  0  0  0
  5 10  1  0  0  0  0
  6  7  1  0  0  0  0
  6 12  2  0  0  0  0
  7 13  2  0  0  0  0
  8 11  2  0  0  0  0
  8 22  1  0  0  0  0
  9 11  1  0  0  0  0
 10 14  1  0  0  0  0
 10 23  1  0  0  0  0
 10 24  1  0  0  0  0
 11 15  1  0  0  0  0
 12 16  1  0  0  0  0
 12 25  1  0  0  0  0
 13 17  1  0  0  0  0
 13 26  1  0  0  0  0
 14 18  2  0  0  0  0
 14 27  1  0  0  0  0
 15 28  1  0  0  0  0
 15 29  1  0  0  0  0
 15 30  1  0  0  0  0
 16 17  2  0  0  0  0
 16 31  1  0  0  0  0
 17 32  1  0  0  0  0
 18 19  1  0  0  0  0
 18 20  1  0  0  0  0
 19 34  1  0  0  0  0
 19 35  1  0  0  0  0
 19 36  1  0  0  0  0
 20 37  1  0  0  0  0
 20 38  1  0  0  0  0
 20 39  1  0  0  0  0
M  END
> <PUBCHEM_COMPOUND_CID>
5209

> <PUBCHEM_COMPOUND_CANONICALIZED>
1

> <PUBCHEM_CACTVS_COMPLEXITY>
374

> <PUBCHEM_CACTVS_HBOND_ACCEPTOR>
1

> <PUBCHEM_CACTVS_HBOND_DONOR>
2

> <PUBCHEM_CACTVS_ROTATABLE_BOND>
2

> <PUBCHEM_CACTVS_SUBSKEYS>
AAADceB6IAAAAAAAAAAAAAAAAAAAAWAAAAAwYAAAAAAAAFgB/AAAHgAQCAAADAyBngAyxvLJkgCgAyRiRACCgCAhIiAImSA0bJgIJuLCkZOEcAhm0BnI2AeQ0PMOqAACAgAKAABQAAQEABQAAAAAAAAAAA==

> <PUBCHEM_IUPAC_OPENEYE_NAME>
3-methyl-1-(3-methylbut-2-enyl)-9H-carbazol-2-ol

> <PUBCHEM_IUPAC_CAS_NAME>
3-methyl-1-(3-methylbut-2-enyl)-9H-carbazol-2-ol

> <PUBCHEM_IUPAC_NAME>
3-methyl-1-(3-methylbut-2-enyl)-9H-carbazol-2-ol

> <PUBCHEM_IUPAC_SYSTEMATIC_NAME>
3-methyl-1-(3-methylbut-2-enyl)-9H-carbazol-2-ol

> <PUBCHEM_IUPAC_TRADITIONAL_NAME>
3-methyl-1-(3-methylbut-2-enyl)-9H-carbazol-2-ol

> <PUBCHEM_IUPAC_INCHI>
InChI=1S/C18H19NO/c1-11(2)8-9-14-17-15(10-12(3)18(14)20)13-6-4-5-7-16(13)19-17/h4-8,10,19-20H,9H2,1-3H3

> <PUBCHEM_IUPAC_INCHIKEY>
PURITTXNCHNYEP-UHFFFAOYSA-N

> <PUBCHEM_XLOGP3_AA>
5.3

> <PUBCHEM_EXACT_MASS>
265.146664

> <PUBCHEM_MOLECULAR_FORMULA>
C18H19NO

> <PUBCHEM_MOLECULAR_WEIGHT>
265.34956

> <PUBCHEM_OPENEYE_CAN_SMILES>
CC1=C(C(=C2C(=C1)C3=CC=CC=C3N2)CC=C(C)C)O

> <PUBCHEM_OPENEYE_ISO_SMILES>
CC1=C(C(=C2C(=C1)C3=CC=CC=C3N2)CC=C(C)C)O

> <PUBCHEM_CACTVS_TPSA>
36

> <PUBCHEM_MONOISOTOPIC_WEIGHT>
265.146664

> <PUBCHEM_TOTAL_CHARGE>
0

> <PUBCHEM_HEAVY_ATOM_COUNT>
20

> <PUBCHEM_ATOM_DEF_STEREO_COUNT>
0

> <PUBCHEM_ATOM_UDEF_STEREO_COUNT>
0

> <PUBCHEM_BOND_DEF_STEREO_COUNT>
0

> <PUBCHEM_BOND_UDEF_STEREO_COUNT>
0

> <PUBCHEM_ISOTOPIC_ATOM_COUNT>
0

> <PUBCHEM_COMPONENT_COUNT>
1

> <PUBCHEM_CACTVS_TAUTO_COUNT>
9

> <PUBCHEM_COORDINATE_TYPE>
1
5
255

> <PUBCHEM_BONDANNOTATIONS>
12  16  8
13  17  8
16  17  8
2  3  8
2  7  8
3  4  8
3  5  8
4  6  8
4  8  8
5  9  8
6  12  8
6  7  8
7  13  8
8  11  8
9  11  8

$$$$

