7303
  -OEChem-06261202002D

 10 10  0     0  0  0  0  0  0999 V2000
    2.8090   -0.7694    0.0000 O   0  0  0  0  0  0  0  0  0  0  0  0
    3.3090    0.7694    0.0000 O   0  0  0  0  0  0  0  0  0  0  0  0
    4.5691   -0.4907    0.0000 O   0  0  0  0  0  0  0  0  0  0  0  0
    2.0000   -0.1816    0.0000 C   0  0  0  0  0  0  0  0  0  0  0  0
    2.3090    0.7694    0.0000 C   0  0  0  0  0  0  0  0  0  0  0  0
    3.6180   -0.1816    0.0000 C   0  0  0  0  0  0  0  0  0  0  0  0
    1.4336    0.0705    0.0000 H   0  0  0  0  0  0  0  0  0  0  0  0
    1.6900   -0.7186    0.0000 H   0  0  0  0  0  0  0  0  0  0  0  0
    2.3738    1.3860    0.0000 H   0  0  0  0  0  0  0  0  0  0  0  0
    1.7026    0.8983    0.0000 H   0  0  0  0  0  0  0  0  0  0  0  0
  1  4  1  0  0  0  0
  1  6  1  0  0  0  0
  2  5  1  0  0  0  0
  2  6  1  0  0  0  0
  3  6  2  0  0  0  0
  4  5  1  0  0  0  0
  4  7  1  0  0  0  0
  4  8  1  0  0  0  0
  5  9  1  0  0  0  0
  5 10  1  0  0  0  0
M  END
> <PUBCHEM_COMPOUND_CID>
7303

> <PUBCHEM_COMPOUND_CANONICALIZED>
1

> <PUBCHEM_CACTVS_COMPLEXITY>
60.4

> <PUBCHEM_CACTVS_HBOND_ACCEPTOR>
3

> <PUBCHEM_CACTVS_HBOND_DONOR>
0

> <PUBCHEM_CACTVS_ROTATABLE_BOND>
0

> <PUBCHEM_CACTVS_SUBSKEYS>
AAADcYBAMAAAAAAAAAAAAAAAAAAAASAAAAAAAAAAAAAAAAAAAAAAGgAAAAAAAACggAIACAAABAAIAAAACAAAAAAAAAAAAAAAAAARAAAAAAAgAAAAAAAGAAAAAAAAAAAAAAAAAAAAAAAAAAAAAAAAAAAAAA==

> <PUBCHEM_IUPAC_OPENEYE_NAME>
1,3-dioxolan-2-one

> <PUBCHEM_IUPAC_CAS_NAME>
1,3-dioxolan-2-one

> <PUBCHEM_IUPAC_NAME>
1,3-dioxolan-2-one

> <PUBCHEM_IUPAC_SYSTEMATIC_NAME>
1,3-dioxolan-2-one

> <PUBCHEM_IUPAC_TRADITIONAL_NAME>
1,3-dioxolan-2-one

> <PUBCHEM_IUPAC_INCHI>
InChI=1S/C3H4O3/c4-3-5-1-2-6-3/h1-2H2

> <PUBCHEM_IUPAC_INCHIKEY>
KMTRUDSVKNLOMY-UHFFFAOYSA-N

> <PUBCHEM_XLOGP3_AA>
0.3

> <PUBCHEM_EXACT_MASS>
88.016044

> <PUBCHEM_MOLECULAR_FORMULA>
C3H4O3

> <PUBCHEM_MOLECULAR_WEIGHT>
88.06206

> <PUBCHEM_OPENEYE_CAN_SMILES>
C1COC(=O)O1

> <PUBCHEM_OPENEYE_ISO_SMILES>
C1COC(=O)O1

> <PUBCHEM_CACTVS_TPSA>
35.5

> <PUBCHEM_MONOISOTOPIC_WEIGHT>
88.016044

> <PUBCHEM_TOTAL_CHARGE>
0

> <PUBCHEM_HEAVY_ATOM_COUNT>
6

> <PUBCHEM_ATOM_DEF_STEREO_COUNT>
0

> <PUBCHEM_ATOM_UDEF_STEREO_COUNT>
0

> <PUBCHEM_BOND_DEF_STEREO_COUNT>
0

> <PUBCHEM_BOND_UDEF_STEREO_COUNT>
0

> <PUBCHEM_ISOTOPIC_ATOM_COUNT>
0

> <PUBCHEM_COMPONENT_COUNT>
1

> <PUBCHEM_CACTVS_TAUTO_COUNT>
1

> <PUBCHEM_COORDINATE_TYPE>
1
5
255

$$$$

