9627
  -OEChem-06261203533D

 11 10  0     0  0  0  0  0  0999 V2000
   -0.0001   -0.0346   -0.0001 Si  0  0  0  0  0  0  0  0  0  0  0  0
   -0.0016   -0.9660   -1.2996 F   0  0  0  0  0  0  0  0  0  0  0  0
   -0.0003   -0.9611    1.3029 F   0  0  0  0  0  0  0  0  0  0  0  0
   -1.5380    0.9821   -0.0011 C   0  0  0  0  0  0  0  0  0  0  0  0
    1.5401    0.9796   -0.0022 C   0  0  0  0  0  0  0  0  0  0  0  0
   -2.4304    0.3487    0.0005 H   0  0  0  0  0  0  0  0  0  0  0  0
   -1.5874    1.6273    0.8814 H   0  0  0  0  0  0  0  0  0  0  0  0
   -1.5884    1.6243   -0.8857 H   0  0  0  0  0  0  0  0  0  0  0  0
    1.5911    1.6246    0.8804 H   0  0  0  0  0  0  0  0  0  0  0  0
    2.4311    0.3444   -0.0013 H   0  0  0  0  0  0  0  0  0  0  0  0
    1.5907    1.6218   -0.8869 H   0  0  0  0  0  0  0  0  0  0  0  0
  1  2  1  0  0  0  0
  1  3  1  0  0  0  0
  1  4  1  0  0  0  0
  1  5  1  0  0  0  0
  4  6  1  0  0  0  0
  4  7  1  0  0  0  0
  4  8  1  0  0  0  0
  5  9  1  0  0  0  0
  5 10  1  0  0  0  0
  5 11  1  0  0  0  0
M  END
> <PUBCHEM_COMPOUND_CID>
9627

> <PUBCHEM_CONFORMER_RMSD>
0.4

> <PUBCHEM_CONFORMER_DIVERSEORDER>
1

> <PUBCHEM_MMFF94_PARTIAL_CHARGES>
5
1 0.98
2 -0.41
3 -0.41
4 -0.08
5 -0.08

> <PUBCHEM_EFFECTIVE_ROTOR_COUNT>
0

> <PUBCHEM_PHARMACOPHORE_FEATURES>
0

> <PUBCHEM_HEAVY_ATOM_COUNT>
5

> <PUBCHEM_ATOM_DEF_STEREO_COUNT>
0

> <PUBCHEM_ATOM_UDEF_STEREO_COUNT>
0

> <PUBCHEM_BOND_DEF_STEREO_COUNT>
0

> <PUBCHEM_BOND_UDEF_STEREO_COUNT>
0

> <PUBCHEM_ISOTOPIC_ATOM_COUNT>
0

> <PUBCHEM_COMPONENT_COUNT>
1

> <PUBCHEM_CACTVS_TAUTO_COUNT>
1

> <PUBCHEM_CONFORMER_ID>
0000259B00000001

> <PUBCHEM_MMFF94_ENERGY>
-0.3023

> <PUBCHEM_FEATURE_SELFOVERLAP>
0

> <PUBCHEM_SHAPE_FINGERPRINT>
16714656 1 17824549556313946669
20096714 4 18410579504227033792
5943 1 15408338643487562081

> <PUBCHEM_SHAPE_MULTIPOLES>
106.56
1.61
1.28
1.12
0
0.01
0
-0.81
0
0
0
0
0.44
0

> <PUBCHEM_SHAPE_SELFOVERLAP>
173.233

> <PUBCHEM_SHAPE_VOLUME>
73.5

> <PUBCHEM_COORDINATE_TYPE>
2
5
10

$$$$

