11411
  -OEChem-06261205382D

 22 23  0     0  0  0  0  0  0999 V2000
    5.2215    2.7756    0.0000 S   0  0  0  0  0  0  0  0  0  0  0  0
    4.8535   -0.7253    0.0000 O   0  0  0  0  0  0  0  0  0  0  0  0
    3.8366    1.6541    0.0000 N   0  0  0  0  0  0  0  0  0  0  0  0
    5.3147    0.9960    0.0000 N   0  0  0  0  0  0  0  0  0  0  0  0
    3.7321    0.6596    0.0000 C   0  0  0  0  0  0  0  0  0  0  0  0
    2.8660   -0.8404    0.0000 C   0  0  0  0  0  0  0  0  0  0  0  0
    2.8660    0.1596    0.0000 C   0  0  0  0  0  0  0  0  0  0  0  0
    4.6456    0.2529    0.0000 C   0  0  0  0  0  0  0  0  0  0  0  0
    3.7321   -1.3404    0.0000 C   0  0  0  0  0  0  0  0  0  0  0  0
    2.0000   -1.3404    0.0000 C   0  0  0  0  0  0  0  0  0  0  0  0
    4.8147    1.8620    0.0000 C   0  0  0  0  0  0  0  0  0  0  0  0
    3.7321   -2.3404    0.0000 C   0  0  0  0  0  0  0  0  0  0  0  0
    2.0000   -2.3404    0.0000 C   0  0  0  0  0  0  0  0  0  0  0  0
    2.8660   -2.8404    0.0000 C   0  0  0  0  0  0  0  0  0  0  0  0
    2.3291    0.4696    0.0000 H   0  0  0  0  0  0  0  0  0  0  0  0
    3.3758    2.0690    0.0000 H   0  0  0  0  0  0  0  0  0  0  0  0
    4.2690   -1.0304    0.0000 H   0  0  0  0  0  0  0  0  0  0  0  0
    1.4631   -1.0304    0.0000 H   0  0  0  0  0  0  0  0  0  0  0  0
    4.2690   -2.6504    0.0000 H   0  0  0  0  0  0  0  0  0  0  0  0
    1.4631   -2.6504    0.0000 H   0  0  0  0  0  0  0  0  0  0  0  0
    2.8660   -3.4604    0.0000 H   0  0  0  0  0  0  0  0  0  0  0  0
    5.8381    2.8404    0.0000 H   0  0  0  0  0  0  0  0  0  0  0  0
  1 11  1  0  0  0  0
  1 22  1  0  0  0  0
  2  8  2  0  0  0  0
  3  5  1  0  0  0  0
  3 11  1  0  0  0  0
  3 16  1  0  0  0  0
  4  8  1  0  0  0  0
  4 11  2  0  0  0  0
  5  7  2  3  0  0  0
  5  8  1  0  0  0  0
  6  7  1  0  0  0  0
  6  9  2  0  0  0  0
  6 10  1  0  0  0  0
  7 15  1  0  0  0  0
  9 12  1  0  0  0  0
  9 17  1  0  0  0  0
 10 13  2  0  0  0  0
 10 18  1  0  0  0  0
 12 14  2  0  0  0  0
 12 19  1  0  0  0  0
 13 14  1  0  0  0  0
 13 20  1  0  0  0  0
 14 21  1  0  0  0  0
M  END
> <PUBCHEM_COMPOUND_CID>
11411

> <PUBCHEM_COMPOUND_CANONICALIZED>
1

> <PUBCHEM_CACTVS_COMPLEXITY>
303

> <PUBCHEM_CACTVS_HBOND_ACCEPTOR>
2

> <PUBCHEM_CACTVS_HBOND_DONOR>
2

> <PUBCHEM_CACTVS_ROTATABLE_BOND>
1

> <PUBCHEM_CACTVS_SUBSKEYS>
AAADccBzIABAAAAAAAAAAAAAAAAAAQAAAAAwAAAAAAAAAAABAAAAHgQQAAAADAiBmAAxAILAAASoAiVSdACCEAEgAgAJiACAAMgIYCKAGTCQIAAggAAIiYcAgAAOAAAAAAAAAAAAAAAAAAAAAAAAAAAAAA==

> <PUBCHEM_IUPAC_OPENEYE_NAME>
5-benzylidene-2-sulfanyl-1H-imidazol-4-one

> <PUBCHEM_IUPAC_CAS_NAME>
2-mercapto-5-(phenylmethylene)-1H-imidazol-4-one

> <PUBCHEM_IUPAC_NAME>
5-benzylidene-2-sulfanyl-1H-imidazol-4-one

> <PUBCHEM_IUPAC_SYSTEMATIC_NAME>
5-(phenylmethylidene)-2-sulfanyl-1H-imidazol-4-one

> <PUBCHEM_IUPAC_TRADITIONAL_NAME>
5-benzal-2-mercapto-2-imidazolin-4-one

> <PUBCHEM_IUPAC_INCHI>
InChI=1S/C10H8N2OS/c13-9-8(11-10(14)12-9)6-7-4-2-1-3-5-7/h1-6H,(H2,11,12,13,14)

> <PUBCHEM_IUPAC_INCHIKEY>
YXMBDTHHYFCMKP-UHFFFAOYSA-N

> <PUBCHEM_XLOGP3_AA>
1.9

> <PUBCHEM_EXACT_MASS>
204.035734

> <PUBCHEM_MOLECULAR_FORMULA>
C10H8N2OS

> <PUBCHEM_MOLECULAR_WEIGHT>
204.24832

> <PUBCHEM_OPENEYE_CAN_SMILES>
C1=CC=C(C=C1)C=C2C(=O)N=C(N2)S

> <PUBCHEM_OPENEYE_ISO_SMILES>
C1=CC=C(C=C1)C=C2C(=O)N=C(N2)S

> <PUBCHEM_CACTVS_TPSA>
42.5

> <PUBCHEM_MONOISOTOPIC_WEIGHT>
204.035734

> <PUBCHEM_TOTAL_CHARGE>
0

> <PUBCHEM_HEAVY_ATOM_COUNT>
14

> <PUBCHEM_ATOM_DEF_STEREO_COUNT>
0

> <PUBCHEM_ATOM_UDEF_STEREO_COUNT>
0

> <PUBCHEM_BOND_DEF_STEREO_COUNT>
0

> <PUBCHEM_BOND_UDEF_STEREO_COUNT>
1

> <PUBCHEM_ISOTOPIC_ATOM_COUNT>
0

> <PUBCHEM_COMPONENT_COUNT>
1

> <PUBCHEM_CACTVS_TAUTO_COUNT>
5

> <PUBCHEM_COORDINATE_TYPE>
1
5
255

> <PUBCHEM_BONDANNOTATIONS>
10  13  8
12  14  8
13  14  8
5  7  1
6  10  8
6  9  8
9  12  8

$$$$

