9822
  -OEChem-06261204062D

 15 15  0     0  0  0  0  0  0999 V2000
    3.4013    1.6899    0.0000 O   0  0  0  0  0  0  0  0  0  0  0  0
    2.0000    0.6718    0.0000 O   0  0  0  0  0  0  0  0  0  0  0  0
    4.0823   -1.5715    0.0000 N   0  0  0  0  0  0  0  0  0  0  0  0
    3.2733   -0.9837    0.0000 N   0  0  0  0  0  0  0  0  0  0  0  0
    4.8913   -0.9837    0.0000 C   0  0  0  0  0  0  0  0  0  0  0  0
    4.5823   -0.0327    0.0000 C   0  0  0  0  0  0  0  0  0  0  0  0
    3.5823   -0.0327    0.0000 C   0  0  0  0  0  0  0  0  0  0  0  0
    5.8424   -1.2927    0.0000 C   0  0  0  0  0  0  0  0  0  0  0  0
    2.9945    0.7764    0.0000 C   0  0  0  0  0  0  0  0  0  0  0  0
    4.9467    0.4689    0.0000 H   0  0  0  0  0  0  0  0  0  0  0  0
    4.0823   -2.1915    0.0000 H   0  0  0  0  0  0  0  0  0  0  0  0
    5.6508   -1.8824    0.0000 H   0  0  0  0  0  0  0  0  0  0  0  0
    6.4320   -1.4843    0.0000 H   0  0  0  0  0  0  0  0  0  0  0  0
    6.0340   -0.7031    0.0000 H   0  0  0  0  0  0  0  0  0  0  0  0
    3.0368    2.1915    0.0000 H   0  0  0  0  0  0  0  0  0  0  0  0
  1  9  1  0  0  0  0
  1 15  1  0  0  0  0
  2  9  2  0  0  0  0
  3  4  1  0  0  0  0
  3  5  1  0  0  0  0
  3 11  1  0  0  0  0
  4  7  2  0  0  0  0
  5  6  2  0  0  0  0
  5  8  1  0  0  0  0
  6  7  1  0  0  0  0
  6 10  1  0  0  0  0
  7  9  1  0  0  0  0
  8 12  1  0  0  0  0
  8 13  1  0  0  0  0
  8 14  1  0  0  0  0
M  END
> <PUBCHEM_COMPOUND_CID>
9822

> <PUBCHEM_COMPOUND_CANONICALIZED>
1

> <PUBCHEM_CACTVS_COMPLEXITY>
126

> <PUBCHEM_CACTVS_HBOND_ACCEPTOR>
3

> <PUBCHEM_CACTVS_HBOND_DONOR>
2

> <PUBCHEM_CACTVS_ROTATABLE_BOND>
1

> <PUBCHEM_CACTVS_SUBSKEYS>
AAADcYBjMAAAAAAAAAAAAAAAAAAAAWAAAAAAAAAAAAAAAAABgAAAHgAYCAAACAiBlgAyiJBjAgCqASTySASQBAAmAgAQOSGwbFgCJhIAxdAA1QBkWAEIWYKsAAAAAAAAAAAAAAAAAAAAAAAAAAAAAAAAAA==

> <PUBCHEM_IUPAC_OPENEYE_NAME>
5-methyl-1H-pyrazole-3-carboxylic acid

> <PUBCHEM_IUPAC_CAS_NAME>
5-methyl-1H-pyrazole-3-carboxylic acid

> <PUBCHEM_IUPAC_NAME>
5-methyl-1H-pyrazole-3-carboxylic acid

> <PUBCHEM_IUPAC_SYSTEMATIC_NAME>
5-methyl-1H-pyrazole-3-carboxylic acid

> <PUBCHEM_IUPAC_TRADITIONAL_NAME>
5-methyl-1H-pyrazole-3-carboxylic acid

> <PUBCHEM_IUPAC_INCHI>
InChI=1S/C5H6N2O2/c1-3-2-4(5(8)9)7-6-3/h2H,1H3,(H,6,7)(H,8,9)

> <PUBCHEM_IUPAC_INCHIKEY>
WSMQKESQZFQMFW-UHFFFAOYSA-N

> <PUBCHEM_XLOGP3_AA>
0.5

> <PUBCHEM_EXACT_MASS>
126.042927

> <PUBCHEM_MOLECULAR_FORMULA>
C5H6N2O2

> <PUBCHEM_MOLECULAR_WEIGHT>
126.11334

> <PUBCHEM_OPENEYE_CAN_SMILES>
CC1=CC(=NN1)C(=O)O

> <PUBCHEM_OPENEYE_ISO_SMILES>
CC1=CC(=NN1)C(=O)O

> <PUBCHEM_CACTVS_TPSA>
66

> <PUBCHEM_MONOISOTOPIC_WEIGHT>
126.042927

> <PUBCHEM_TOTAL_CHARGE>
0

> <PUBCHEM_HEAVY_ATOM_COUNT>
9

> <PUBCHEM_ATOM_DEF_STEREO_COUNT>
0

> <PUBCHEM_ATOM_UDEF_STEREO_COUNT>
0

> <PUBCHEM_BOND_DEF_STEREO_COUNT>
0

> <PUBCHEM_BOND_UDEF_STEREO_COUNT>
0

> <PUBCHEM_ISOTOPIC_ATOM_COUNT>
0

> <PUBCHEM_COMPONENT_COUNT>
1

> <PUBCHEM_CACTVS_TAUTO_COUNT>
4

> <PUBCHEM_COORDINATE_TYPE>
1
5
255

> <PUBCHEM_BONDANNOTATIONS>
3  4  8
3  5  8
4  7  8
5  6  8
6  7  8

$$$$

