11918
  -OEChem-06261206173D

 28 29  0     0  0  0  0  0  0999 V2000
    0.0272   -1.2528    0.3129 C   0  0  0  0  0  0  0  0  0  0  0  0
   -1.2356   -0.4666    0.2030 C   0  0  0  0  0  0  0  0  0  0  0  0
    1.2844   -0.3971    0.1159 C   0  0  0  0  0  0  0  0  0  0  0  0
    0.0783   -2.5293   -0.5646 C   0  0  0  0  0  0  0  0  0  0  0  0
   -1.6932    0.2741    1.2927 C   0  0  0  0  0  0  0  0  0  0  0  0
    2.3676   -0.6266    0.9301 C   0  0  0  0  0  0  0  0  0  0  0  0
   -1.9592   -0.4724   -0.9895 C   0  0  0  0  0  0  0  0  0  0  0  0
    1.2758    0.5642   -0.8663 C   0  0  0  0  0  0  0  0  0  0  0  0
   -2.8743    1.0091    1.1902 C   0  0  0  0  0  0  0  0  0  0  0  0
    3.5111    0.1521    0.7514 C   0  0  0  0  0  0  0  0  0  0  0  0
   -3.1403    0.2626   -1.0922 C   0  0  0  0  0  0  0  0  0  0  0  0
    2.4193    1.3427   -1.0451 C   0  0  0  0  0  0  0  0  0  0  0  0
   -3.5978    1.0033   -0.0022 C   0  0  0  0  0  0  0  0  0  0  0  0
    3.5369    1.1367   -0.2363 C   0  0  0  0  0  0  0  0  0  0  0  0
    0.0501   -1.6302    1.3473 H   0  0  0  0  0  0  0  0  0  0  0  0
    0.1848   -2.2944   -1.6295 H   0  0  0  0  0  0  0  0  0  0  0  0
   -0.8215   -3.1396   -0.4298 H   0  0  0  0  0  0  0  0  0  0  0  0
    0.9431   -3.1444   -0.2895 H   0  0  0  0  0  0  0  0  0  0  0  0
   -1.1391    0.2892    2.2277 H   0  0  0  0  0  0  0  0  0  0  0  0
    2.3562   -1.3924    1.6992 H   0  0  0  0  0  0  0  0  0  0  0  0
   -1.6296   -1.0253   -1.8632 H   0  0  0  0  0  0  0  0  0  0  0  0
    0.4342    0.7367   -1.5265 H   0  0  0  0  0  0  0  0  0  0  0  0
   -3.2302    1.5863    2.0385 H   0  0  0  0  0  0  0  0  0  0  0  0
    4.3816   -0.0090    1.3805 H   0  0  0  0  0  0  0  0  0  0  0  0
   -3.7025    0.2611   -2.0215 H   0  0  0  0  0  0  0  0  0  0  0  0
    2.4417    2.1060   -1.8175 H   0  0  0  0  0  0  0  0  0  0  0  0
   -4.5169    1.5763   -0.0825 H   0  0  0  0  0  0  0  0  0  0  0  0
    4.4277    1.7420   -0.3766 H   0  0  0  0  0  0  0  0  0  0  0  0
  1  2  1  0  0  0  0
  1  3  1  0  0  0  0
  1  4  1  0  0  0  0
  1 15  1  0  0  0  0
  2  5  2  0  0  0  0
  2  7  1  0  0  0  0
  3  6  2  0  0  0  0
  3  8  1  0  0  0  0
  4 16  1  0  0  0  0
  4 17  1  0  0  0  0
  4 18  1  0  0  0  0
  5  9  1  0  0  0  0
  5 19  1  0  0  0  0
  6 10  1  0  0  0  0
  6 20  1  0  0  0  0
  7 11  2  0  0  0  0
  7 21  1  0  0  0  0
  8 12  2  0  0  0  0
  8 22  1  0  0  0  0
  9 13  2  0  0  0  0
  9 23  1  0  0  0  0
 10 14  2  0  0  0  0
 10 24  1  0  0  0  0
 11 13  1  0  0  0  0
 11 25  1  0  0  0  0
 12 14  1  0  0  0  0
 12 26  1  0  0  0  0
 13 27  1  0  0  0  0
 14 28  1  0  0  0  0
M  END
> <PUBCHEM_COMPOUND_CID>
11918

> <PUBCHEM_CONFORMER_RMSD>
0.6

> <PUBCHEM_CONFORMER_DIVERSEORDER>
1
2

> <PUBCHEM_MMFF94_PARTIAL_CHARGES>
23
1 0.29
10 -0.15
11 -0.15
12 -0.15
13 -0.15
14 -0.15
19 0.15
2 -0.14
20 0.15
21 0.15
22 0.15
23 0.15
24 0.15
25 0.15
26 0.15
27 0.15
28 0.15
3 -0.14
5 -0.15
6 -0.15
7 -0.15
8 -0.15
9 -0.15

> <PUBCHEM_EFFECTIVE_ROTOR_COUNT>
2

> <PUBCHEM_PHARMACOPHORE_FEATURES>
3
1 4 hydrophobe
6 2 5 7 9 11 13 rings
6 3 6 8 10 12 14 rings

> <PUBCHEM_HEAVY_ATOM_COUNT>
14

> <PUBCHEM_ATOM_DEF_STEREO_COUNT>
0

> <PUBCHEM_ATOM_UDEF_STEREO_COUNT>
0

> <PUBCHEM_BOND_DEF_STEREO_COUNT>
0

> <PUBCHEM_BOND_UDEF_STEREO_COUNT>
0

> <PUBCHEM_ISOTOPIC_ATOM_COUNT>
0

> <PUBCHEM_COMPONENT_COUNT>
1

> <PUBCHEM_CACTVS_TAUTO_COUNT>
1

> <PUBCHEM_CONFORMER_ID>
00002E8E00000001

> <PUBCHEM_MMFF94_ENERGY>
43.1886

> <PUBCHEM_FEATURE_SELFOVERLAP>
15.223

> <PUBCHEM_SHAPE_FINGERPRINT>
10465860 228 18191578864211119929
10618630 7 9295300438524626336
11640471 11 18334579065855160961
12251169 10 17060330803998923785
124424 183 16630255786974831044
12491281 212 18410571743516126424
12696612 119 16988550273858587764
12897270 3 15068341215495755944
13299463 15 14129054820234344527
13705890 14 13912323486598778856
13764800 53 18261939770252985995
15309172 13 18272369775929128022
15653759 3 15770057241513929477
15775835 57 18411983546184148045
16945 1 17917997212835990194
17357990 137 18410562994662677440
17804303 29 14907899435135814459
17844478 74 15985110712480050604
18186145 218 18333724745378271468
19049666 15 16055213477669858427
19107657 47 17775013404850165289
19107657 9 18336536174967184281
20361792 2 10087638165548376155
20645464 45 16988841705033642441
20871999 31 16081383938203594525
21524375 3 18411982446746412211
21713013 43 4823209524503784053
22169311 14 16056883545611945177
22802520 49 14924211772692515417
23184049 59 18272658986532309506
23402539 116 17458354039181979472
23557571 272 16226059838164247083
23559900 14 15864069905937859134
305870 269 18262516012819042558
474 4 18411416254282411193
7364860 26 17606115332053432095
74978 22 18337389314849988636
77492 1 18261119594565613071
81228 2 17831574275885179146
83771 10 8718827604325049479

> <PUBCHEM_SHAPE_MULTIPOLES>
288.11
6.25
1.66
1.26
0.26
0.89
-0.06
-3.06
-0.25
0.25
0.3
-0.34
-0.16
-0.7

> <PUBCHEM_SHAPE_SELFOVERLAP>
617.354

> <PUBCHEM_SHAPE_VOLUME>
151.6

> <PUBCHEM_COORDINATE_TYPE>
2
5
10

$$$$

