11240
  -OEChem-06261205263D

 15 14  0     0  0  0  0  0  0999 V2000
    0.8927   -0.0184    0.6486 C   0  0  0  0  0  0  0  0  0  0  0  0
   -0.5159   -0.0630    0.1090 C   0  0  0  0  0  0  0  0  0  0  0  0
    1.9427    0.0553   -0.4512 C   0  0  0  0  0  0  0  0  0  0  0  0
   -1.1974    1.2530   -0.1339 C   0  0  0  0  0  0  0  0  0  0  0  0
   -1.1221   -1.2269   -0.1724 C   0  0  0  0  0  0  0  0  0  0  0  0
    1.0027    0.8368    1.3261 H   0  0  0  0  0  0  0  0  0  0  0  0
    1.0856   -0.9102    1.2586 H   0  0  0  0  0  0  0  0  0  0  0  0
    1.8178    0.9576   -1.0589 H   0  0  0  0  0  0  0  0  0  0  0  0
    2.9459    0.0796   -0.0138 H   0  0  0  0  0  0  0  0  0  0  0  0
    1.8845   -0.8140   -1.1148 H   0  0  0  0  0  0  0  0  0  0  0  0
   -2.2052    1.1271   -0.5436 H   0  0  0  0  0  0  0  0  0  0  0  0
   -1.2866    1.8115    0.8034 H   0  0  0  0  0  0  0  0  0  0  0  0
   -0.6221    1.8552   -0.8442 H   0  0  0  0  0  0  0  0  0  0  0  0
   -0.6211   -2.1754   -0.0095 H   0  0  0  0  0  0  0  0  0  0  0  0
   -2.1300   -1.2580   -0.5724 H   0  0  0  0  0  0  0  0  0  0  0  0
  1  2  1  0  0  0  0
  1  3  1  0  0  0  0
  1  6  1  0  0  0  0
  1  7  1  0  0  0  0
  2  4  1  0  0  0  0
  2  5  2  0  0  0  0
  3  8  1  0  0  0  0
  3  9  1  0  0  0  0
  3 10  1  0  0  0  0
  4 11  1  0  0  0  0
  4 12  1  0  0  0  0
  4 13  1  0  0  0  0
  5 14  1  0  0  0  0
  5 15  1  0  0  0  0
M  END
> <PUBCHEM_COMPOUND_CID>
11240

> <PUBCHEM_CONFORMER_RMSD>
0.4

> <PUBCHEM_CONFORMER_DIVERSEORDER>
1
2

> <PUBCHEM_MMFF94_PARTIAL_CHARGES>
6
1 0.14
14 0.15
15 0.15
2 -0.28
4 0.14
5 -0.3

> <PUBCHEM_EFFECTIVE_ROTOR_COUNT>
1

> <PUBCHEM_PHARMACOPHORE_FEATURES>
1
1 3 hydrophobe

> <PUBCHEM_HEAVY_ATOM_COUNT>
5

> <PUBCHEM_ATOM_DEF_STEREO_COUNT>
0

> <PUBCHEM_ATOM_UDEF_STEREO_COUNT>
0

> <PUBCHEM_BOND_DEF_STEREO_COUNT>
0

> <PUBCHEM_BOND_UDEF_STEREO_COUNT>
0

> <PUBCHEM_ISOTOPIC_ATOM_COUNT>
0

> <PUBCHEM_COMPONENT_COUNT>
1

> <PUBCHEM_CACTVS_TAUTO_COUNT>
1

> <PUBCHEM_CONFORMER_ID>
00002BE800000001

> <PUBCHEM_MMFF94_ENERGY>
0.9894

> <PUBCHEM_FEATURE_SELFOVERLAP>
5.074

> <PUBCHEM_SHAPE_FINGERPRINT>
139733 1 9870936565517752307
16714656 1 18410284809477720389
20096714 4 18058446676331543292
21015797 1 8430316895731754939
21040471 1 18193848260421524705
24536 1 18337685156281197404
29004967 10 17977943488509315667
5943 1 6003405956893385743

> <PUBCHEM_SHAPE_MULTIPOLES>
102.9
2.12
1.23
0.75
0.96
0.02
0.03
0.09
-0.31
-0.71
-0.09
0.14
0
-0.02

> <PUBCHEM_SHAPE_SELFOVERLAP>
176.763

> <PUBCHEM_SHAPE_VOLUME>
70.5

> <PUBCHEM_COORDINATE_TYPE>
2
5
10

$$$$

