12917
  -OEChem-06261207323D

 34 35  0     0  0  0  0  0  0999 V2000
    2.5166   -2.7091   -0.1491 Cl  0  0  0  0  0  0  0  0  0  0  0  0
   -5.2385    1.1653    0.2847 O   0  0  0  0  0  0  0  0  0  0  0  0
    3.7100    3.4488    0.0582 O   0  0  0  0  0  0  0  0  0  0  0  0
    4.2047    2.1480   -0.0197 N   0  0  0  0  0  0  0  0  0  0  0  0
    0.0764   -3.7692   -0.0731 N   0  0  0  0  0  0  0  0  0  0  0  0
    0.9487   -0.4335    0.0182 C   0  0  0  0  0  0  0  0  0  0  0  0
    3.3957   -0.1682   -0.0834 C   0  0  0  0  0  0  0  0  0  0  0  0
   -0.1612   -1.1965    0.0412 C   0  0  0  0  0  0  0  0  0  0  0  0
    2.3122   -0.9788   -0.0676 C   0  0  0  0  0  0  0  0  0  0  0  0
   -1.4981   -0.5739    0.1055 C   0  0  0  0  0  0  0  0  0  0  0  0
    0.7640    1.0072    0.0852 C   0  0  0  0  0  0  0  0  0  0  0  0
    3.1957    1.3323   -0.0107 C   0  0  0  0  0  0  0  0  0  0  0  0
    1.8031    1.8448    0.0724 C   0  0  0  0  0  0  0  0  0  0  0  0
   -2.0759   -0.3397    1.3413 C   0  0  0  0  0  0  0  0  0  0  0  0
   -2.1445   -0.2388   -1.0717 C   0  0  0  0  0  0  0  0  0  0  0  0
    4.8350   -0.6055   -0.1689 C   0  0  0  0  0  0  0  0  0  0  0  0
   -4.0056    0.5922    0.2254 C   0  0  0  0  0  0  0  0  0  0  0  0
   -3.3396    0.2480    1.4017 C   0  0  0  0  0  0  0  0  0  0  0  0
   -3.4081    0.3489   -1.0112 C   0  0  0  0  0  0  0  0  0  0  0  0
   -0.0273   -2.6144   -0.0224 C   0  0  0  0  0  0  0  0  0  0  0  0
   -5.8632    1.4921   -0.9559 C   0  0  0  0  0  0  0  0  0  0  0  0
   -0.2120    1.4735    0.1505 H   0  0  0  0  0  0  0  0  0  0  0  0
    1.5886    2.9058    0.1261 H   0  0  0  0  0  0  0  0  0  0  0  0
   -1.5676   -0.6036    2.2649 H   0  0  0  0  0  0  0  0  0  0  0  0
   -1.6893   -0.4243   -2.0410 H   0  0  0  0  0  0  0  0  0  0  0  0
    5.3061   -0.1819   -1.0626 H   0  0  0  0  0  0  0  0  0  0  0  0
    4.9672   -1.6884   -0.2232 H   0  0  0  0  0  0  0  0  0  0  0  0
    5.3876   -0.2605    0.7117 H   0  0  0  0  0  0  0  0  0  0  0  0
   -3.8000    0.4351    2.3679 H   0  0  0  0  0  0  0  0  0  0  0  0
   -3.8690    0.5909   -1.9627 H   0  0  0  0  0  0  0  0  0  0  0  0
   -5.2908    2.2450   -1.5085 H   0  0  0  0  0  0  0  0  0  0  0  0
   -6.8349    1.9386   -0.7207 H   0  0  0  0  0  0  0  0  0  0  0  0
   -6.0594    0.5970   -1.5558 H   0  0  0  0  0  0  0  0  0  0  0  0
    4.5295    3.9715    0.0449 H   0  0  0  0  0  0  0  0  0  0  0  0
  1  9  1  0  0  0  0
  2 17  1  0  0  0  0
  2 21  1  0  0  0  0
  3  4  1  0  0  0  0
  3 34  1  0  0  0  0
  4 12  2  0  0  0  0
  5 20  3  0  0  0  0
  6  8  2  0  0  0  0
  6  9  1  0  0  0  0
  6 11  1  0  0  0  0
  7  9  2  0  0  0  0
  7 12  1  0  0  0  0
  7 16  1  0  0  0  0
  8 10  1  0  0  0  0
  8 20  1  0  0  0  0
 10 14  2  0  0  0  0
 10 15  1  0  0  0  0
 11 13  2  0  0  0  0
 11 22  1  0  0  0  0
 12 13  1  0  0  0  0
 13 23  1  0  0  0  0
 14 18  1  0  0  0  0
 14 24  1  0  0  0  0
 15 19  2  0  0  0  0
 15 25  1  0  0  0  0
 16 26  1  0  0  0  0
 16 27  1  0  0  0  0
 16 28  1  0  0  0  0
 17 18  2  0  0  0  0
 17 19  1  0  0  0  0
 18 29  1  0  0  0  0
 19 30  1  0  0  0  0
 21 31  1  0  0  0  0
 21 32  1  0  0  0  0
 21 33  1  0  0  0  0
M  END
> <PUBCHEM_COMPOUND_CID>
12917

> <PUBCHEM_CONFORMER_RMSD>
0.6

> <PUBCHEM_CONFORMER_DIVERSEORDER>
1

> <PUBCHEM_MMFF94_PARTIAL_CHARGES>
27
1 -0.14
10 0.03
11 -0.15
12 0.42
13 -0.14
14 -0.15
15 -0.15
16 0.14
17 0.08
18 -0.15
19 -0.15
2 -0.36
20 0.49
21 0.28
22 0.15
23 0.15
24 0.15
25 0.15
29 0.15
3 -0.34
30 0.15
34 0.4
4 -0.51
5 -0.56
7 -0.12
8 0.04
9 0.14

> <PUBCHEM_EFFECTIVE_ROTOR_COUNT>
2

> <PUBCHEM_PHARMACOPHORE_FEATURES>
6
1 2 acceptor
1 3 anion
1 4 acceptor
1 5 acceptor
6 10 14 15 17 18 19 rings
6 6 7 9 11 12 13 rings

> <PUBCHEM_HEAVY_ATOM_COUNT>
21

> <PUBCHEM_ATOM_DEF_STEREO_COUNT>
0

> <PUBCHEM_ATOM_UDEF_STEREO_COUNT>
0

> <PUBCHEM_BOND_DEF_STEREO_COUNT>
0

> <PUBCHEM_BOND_UDEF_STEREO_COUNT>
2

> <PUBCHEM_ISOTOPIC_ATOM_COUNT>
0

> <PUBCHEM_COMPONENT_COUNT>
1

> <PUBCHEM_CACTVS_TAUTO_COUNT>
2

> <PUBCHEM_CONFORMER_ID>
0000327500000001

> <PUBCHEM_MMFF94_ENERGY>
103.2842

> <PUBCHEM_FEATURE_SELFOVERLAP>
30.446

> <PUBCHEM_SHAPE_FINGERPRINT>
10411042 1 17762056940624079710
10693767 8 17896883368437224782
11471102 20 18338797934994632255
12236239 1 17603871147569800495
12403259 415 18271516529510567169
12730499 353 18341607144770787867
13140716 1 18339643318340768538
14178342 30 17978520728536154304
14848178 96 18262520282259660960
15099037 51 18410008849766856918
15196674 1 18410573942201784676
15309172 13 18411695478501287779
15342168 16 18340767053024944293
16945 1 18410008841161039402
1813 80 17536867046370699142
18186145 218 18335134297884291614
19862831 5 17675925395743672361
20157964 124 18338802316562796893
204376 136 18410289186170967683
20645477 70 18267305507139884079
21033648 29 18201447960186374580
21033650 10 14780087754026885843
21307412 95 17897137278962435998
2255824 54 18262518211890076278
23557571 272 16916785253351475357
23558518 356 18056478344323010090
23559900 14 18339359785426194923
25 1 18411420622053323478
2838139 119 18268439091471499213
3060560 45 18335701701629550606
335352 9 18410292528214738998
350125 39 17906164058112501298
474 4 18335701667322195747
495365 180 18409177614053381273
5104073 3 18270685264275821840
602551 16 16199857380493785888
633830 44 18260828211078252055
77492 1 17603868948525588899
81228 2 17623012291768070299
8272917 22 18263641921579577095
84936 182 18186243922013504592
9981440 41 16594252064207102824

> <PUBCHEM_SHAPE_MULTIPOLES>
412.34
10.06
3.14
0.95
7.81
0.88
0.11
-6.49
-1.18
-3.63
-0.13
1.08
-0.03
0.45

> <PUBCHEM_SHAPE_SELFOVERLAP>
881.388

> <PUBCHEM_SHAPE_VOLUME>
229.6

> <PUBCHEM_COORDINATE_TYPE>
2
5
10

$$$$

