4619
  -OEChem-06261200152D

 57 57  0     0  0  0  0  0  0999 V2000
    4.3660   -0.7500    0.0000 O   0  0  0  0  0  0  0  0  0  0  0  0
    2.6340   -0.7500    0.0000 O   0  0  0  0  0  0  0  0  0  0  0  0
    5.2320    1.7500    0.0000 O   0  0  0  0  0  0  0  0  0  0  0  0
    6.9641    3.7500    0.0000 N   0  0  0  0  0  0  0  0  0  0  0  0
    3.5000   -2.2500    0.0000 C   0  0  0  0  0  0  0  0  0  0  0  0
    4.5000   -2.2500    0.0000 C   0  0  0  0  0  0  0  0  0  0  0  0
    2.5000   -2.2500    0.0000 C   0  0  0  0  0  0  0  0  0  0  0  0
    3.5000   -3.2500    0.0000 C   0  0  0  0  0  0  0  0  0  0  0  0
    3.5000   -1.2500    0.0000 C   0  0  0  0  0  0  0  0  0  0  0  0
    2.0000   -1.3840    0.0000 C   0  0  0  0  0  0  0  0  0  0  0  0
    5.0000   -1.3840    0.0000 C   0  0  0  0  0  0  0  0  0  0  0  0
    2.6340   -3.7500    0.0000 C   0  0  0  0  0  0  0  0  0  0  0  0
    4.3660   -3.7500    0.0000 C   0  0  0  0  0  0  0  0  0  0  0  0
    4.3660    0.2500    0.0000 C   0  0  0  0  0  0  0  0  0  0  0  0
    2.6340   -4.7500    0.0000 C   0  0  0  0  0  0  0  0  0  0  0  0
    4.3660   -4.7500    0.0000 C   0  0  0  0  0  0  0  0  0  0  0  0
    6.0981    3.2500    0.0000 C   0  0  0  0  0  0  0  0  0  0  0  0
    5.2320    0.7500    0.0000 C   0  0  0  0  0  0  0  0  0  0  0  0
    6.0981    2.2500    0.0000 C   0  0  0  0  0  0  0  0  0  0  0  0
    3.5000   -5.2500    0.0000 C   0  0  0  0  0  0  0  0  0  0  0  0
    6.9641    4.7500    0.0000 C   0  0  0  0  0  0  0  0  0  0  0  0
    7.8301    3.2500    0.0000 C   0  0  0  0  0  0  0  0  0  0  0  0
    7.8301    5.2500    0.0000 C   0  0  0  0  0  0  0  0  0  0  0  0
    8.6962    3.7500    0.0000 C   0  0  0  0  0  0  0  0  0  0  0  0
    1.9174   -2.4620    0.0000 H   0  0  0  0  0  0  0  0  0  0  0  0
    2.6077   -2.8606    0.0000 H   0  0  0  0  0  0  0  0  0  0  0  0
    4.3923   -2.8606    0.0000 H   0  0  0  0  0  0  0  0  0  0  0  0
    5.0826   -2.4620    0.0000 H   0  0  0  0  0  0  0  0  0  0  0  0
    5.5369   -1.6940    0.0000 H   0  0  0  0  0  0  0  0  0  0  0  0
    2.5369   -1.0740    0.0000 H   0  0  0  0  0  0  0  0  0  0  0  0
    5.3100   -0.8470    0.0000 H   0  0  0  0  0  0  0  0  0  0  0  0
    4.4631   -1.0740    0.0000 H   0  0  0  0  0  0  0  0  0  0  0  0
    1.6900   -0.8470    0.0000 H   0  0  0  0  0  0  0  0  0  0  0  0
    1.4631   -1.6940    0.0000 H   0  0  0  0  0  0  0  0  0  0  0  0
    2.0970   -3.4400    0.0000 H   0  0  0  0  0  0  0  0  0  0  0  0
    4.9030   -3.4400    0.0000 H   0  0  0  0  0  0  0  0  0  0  0  0
    4.1540    0.8326    0.0000 H   0  0  0  0  0  0  0  0  0  0  0  0
    3.7554    0.1423    0.0000 H   0  0  0  0  0  0  0  0  0  0  0  0
    5.8860    3.8326    0.0000 H   0  0  0  0  0  0  0  0  0  0  0  0
    5.4875    3.1423    0.0000 H   0  0  0  0  0  0  0  0  0  0  0  0
    2.0970   -5.0600    0.0000 H   0  0  0  0  0  0  0  0  0  0  0  0
    4.9030   -5.0600    0.0000 H   0  0  0  0  0  0  0  0  0  0  0  0
    5.4441    0.1674    0.0000 H   0  0  0  0  0  0  0  0  0  0  0  0
    5.8426    0.8577    0.0000 H   0  0  0  0  0  0  0  0  0  0  0  0
    6.3101    1.6674    0.0000 H   0  0  0  0  0  0  0  0  0  0  0  0
    6.7087    2.3577    0.0000 H   0  0  0  0  0  0  0  0  0  0  0  0
    3.5000   -5.8700    0.0000 H   0  0  0  0  0  0  0  0  0  0  0  0
    7.4316    2.7750    0.0000 H   0  0  0  0  0  0  0  0  0  0  0  0
    8.2287    2.7750    0.0000 H   0  0  0  0  0  0  0  0  0  0  0  0
    6.7520    5.3326    0.0000 H   0  0  0  0  0  0  0  0  0  0  0  0
    6.3535    4.6423    0.0000 H   0  0  0  0  0  0  0  0  0  0  0  0
    8.1401    4.7131    0.0000 H   0  0  0  0  0  0  0  0  0  0  0  0
    8.3671    5.5600    0.0000 H   0  0  0  0  0  0  0  0  0  0  0  0
    9.0062    3.2131    0.0000 H   0  0  0  0  0  0  0  0  0  0  0  0
    9.2331    4.0600    0.0000 H   0  0  0  0  0  0  0  0  0  0  0  0
    8.3862    4.2869    0.0000 H   0  0  0  0  0  0  0  0  0  0  0  0
    7.5201    5.7869    0.0000 H   0  0  0  0  0  0  0  0  0  0  0  0
  1  9  1  0  0  0  0
  1 14  1  0  0  0  0
  2  9  2  0  0  0  0
  3 18  1  0  0  0  0
  3 19  1  0  0  0  0
  4 17  1  0  0  0  0
  4 21  1  0  0  0  0
  4 22  1  0  0  0  0
  5  6  1  0  0  0  0
  5  7  1  0  0  0  0
  5  8  1  0  0  0  0
  5  9  1  0  0  0  0
  6 11  1  0  0  0  0
  6 27  1  0  0  0  0
  6 28  1  0  0  0  0
  7 10  1  0  0  0  0
  7 25  1  0  0  0  0
  7 26  1  0  0  0  0
  8 12  2  0  0  0  0
  8 13  1  0  0  0  0
 10 30  1  0  0  0  0
 10 33  1  0  0  0  0
 10 34  1  0  0  0  0
 11 29  1  0  0  0  0
 11 31  1  0  0  0  0
 11 32  1  0  0  0  0
 12 15  1  0  0  0  0
 12 35  1  0  0  0  0
 13 16  2  0  0  0  0
 13 36  1  0  0  0  0
 14 18  1  0  0  0  0
 14 37  1  0  0  0  0
 14 38  1  0  0  0  0
 15 20  2  0  0  0  0
 15 41  1  0  0  0  0
 16 20  1  0  0  0  0
 16 42  1  0  0  0  0
 17 19  1  0  0  0  0
 17 39  1  0  0  0  0
 17 40  1  0  0  0  0
 18 43  1  0  0  0  0
 18 44  1  0  0  0  0
 19 45  1  0  0  0  0
 19 46  1  0  0  0  0
 20 47  1  0  0  0  0
 21 23  1  0  0  0  0
 21 50  1  0  0  0  0
 21 51  1  0  0  0  0
 22 24  1  0  0  0  0
 22 48  1  0  0  0  0
 22 49  1  0  0  0  0
 23 52  1  0  0  0  0
 23 53  1  0  0  0  0
 23 57  1  0  0  0  0
 24 54  1  0  0  0  0
 24 55  1  0  0  0  0
 24 56  1  0  0  0  0
M  END
> <PUBCHEM_COMPOUND_CID>
4619

> <PUBCHEM_COMPOUND_CANONICALIZED>
1

> <PUBCHEM_CACTVS_COMPLEXITY>
332

> <PUBCHEM_CACTVS_HBOND_ACCEPTOR>
4

> <PUBCHEM_CACTVS_HBOND_DONOR>
0

> <PUBCHEM_CACTVS_ROTATABLE_BOND>
13

> <PUBCHEM_CACTVS_SUBSKEYS>
AAADcfB6MAAAAAAAAAAAAAAAAAAAAAAAAAAwAAAAAAAAAAABAAAAHgAAAAAADgDhmAYyCIMABACIAiDSCAACAAAgAAAIiAEIAIgLIDKAFRCDIAAkwAGaiAeIyOCPgAAAAAAAAAAAAAAAAAAAAAAAAAAAAA==

> <PUBCHEM_IUPAC_OPENEYE_NAME>
2-[2-(diethylamino)ethoxy]ethyl 2-ethyl-2-phenyl-butanoate

> <PUBCHEM_IUPAC_CAS_NAME>
2-ethyl-2-phenylbutanoic acid 2-[2-(diethylamino)ethoxy]ethyl ester

> <PUBCHEM_IUPAC_NAME>
2-[2-(diethylamino)ethoxy]ethyl 2-ethyl-2-phenylbutanoate

> <PUBCHEM_IUPAC_SYSTEMATIC_NAME>
2-[2-(diethylamino)ethoxy]ethyl 2-ethyl-2-phenyl-butanoate

> <PUBCHEM_IUPAC_TRADITIONAL_NAME>
2-ethyl-2-phenyl-butyric acid 2-[2-(diethylamino)ethoxy]ethyl ester

> <PUBCHEM_IUPAC_INCHI>
InChI=1S/C20H33NO3/c1-5-20(6-2,18-12-10-9-11-13-18)19(22)24-17-16-23-15-14-21(7-3)8-4/h9-13H,5-8,14-17H2,1-4H3

> <PUBCHEM_IUPAC_INCHIKEY>
IQADUMSPOQKAAO-UHFFFAOYSA-N

> <PUBCHEM_XLOGP3_AA>
4

> <PUBCHEM_EXACT_MASS>
335.246044

> <PUBCHEM_MOLECULAR_FORMULA>
C20H33NO3

> <PUBCHEM_MOLECULAR_WEIGHT>
335.48092

> <PUBCHEM_OPENEYE_CAN_SMILES>
CCC(CC)(C1=CC=CC=C1)C(=O)OCCOCCN(CC)CC

> <PUBCHEM_OPENEYE_ISO_SMILES>
CCC(CC)(C1=CC=CC=C1)C(=O)OCCOCCN(CC)CC

> <PUBCHEM_CACTVS_TPSA>
38.8

> <PUBCHEM_MONOISOTOPIC_WEIGHT>
335.246044

> <PUBCHEM_TOTAL_CHARGE>
0

> <PUBCHEM_HEAVY_ATOM_COUNT>
24

> <PUBCHEM_ATOM_DEF_STEREO_COUNT>
0

> <PUBCHEM_ATOM_UDEF_STEREO_COUNT>
0

> <PUBCHEM_BOND_DEF_STEREO_COUNT>
0

> <PUBCHEM_BOND_UDEF_STEREO_COUNT>
0

> <PUBCHEM_ISOTOPIC_ATOM_COUNT>
0

> <PUBCHEM_COMPONENT_COUNT>
1

> <PUBCHEM_CACTVS_TAUTO_COUNT>
1

> <PUBCHEM_COORDINATE_TYPE>
1
5
255

> <PUBCHEM_BONDANNOTATIONS>
12  15  8
13  16  8
15  20  8
16  20  8
8  12  8
8  13  8

$$$$

