10091
  -OEChem-06261204183D

 86 91  0     1  0  0  0  0  0999 V2000
    4.0762   -0.7064   -1.3301 O   0  0  0  0  0  0  0  0  0  0  0  0
   -1.2760   -3.5586    1.2708 O   0  0  0  0  0  0  0  0  0  0  0  0
   -3.8731   -0.4819    0.0427 O   0  0  0  0  0  0  0  0  0  0  0  0
    7.6899    0.5050   -1.6974 O   0  0  0  0  0  0  0  0  0  0  0  0
   -5.3199    1.2910    0.5596 O   0  0  0  0  0  0  0  0  0  0  0  0
   -6.2788   -1.3762    1.0546 O   0  0  0  0  0  0  0  0  0  0  0  0
   -7.6611    0.1711   -1.9445 O   0  0  0  0  0  0  0  0  0  0  0  0
    9.8641    0.0321   -1.2314 O   0  0  0  0  0  0  0  0  0  0  0  0
   -8.8879    1.8586   -0.1127 O   0  0  0  0  0  0  0  0  0  0  0  0
    1.8645   -0.9361   -0.3699 C   0  0  1  0  0  0  0  0  0  0  0  0
    3.1472   -0.0585   -0.4475 C   0  0  1  0  0  0  0  0  0  0  0  0
    0.8669   -0.4736    0.7332 C   0  0  1  0  0  0  0  0  0  0  0  0
    3.8393    0.1577    0.9266 C   0  0  2  0  0  0  0  0  0  0  0  0
   -0.4269   -1.3757    0.8005 C   0  0  2  0  0  0  0  0  0  0  0  0
   -1.0894   -1.4496   -0.6132 C   0  0  2  0  0  0  0  0  0  0  0  0
    1.5951   -0.3389    2.0844 C   0  0  0  0  0  0  0  0  0  0  0  0
    2.8006    0.5940    1.9931 C   0  0  0  0  0  0  0  0  0  0  0  0
    4.8059    1.3531    0.6485 C   0  0  2  0  0  0  0  0  0  0  0  0
    1.1684   -1.0551   -1.7404 C   0  0  0  0  0  0  0  0  0  0  0  0
    2.9270    1.3755   -0.9665 C   0  0  0  0  0  0  0  0  0  0  0  0
   -0.0952   -1.9073   -1.6897 C   0  0  0  0  0  0  0  0  0  0  0  0
    4.0460    2.2341   -0.3607 C   0  0  0  0  0  0  0  0  0  0  0  0
   -1.4831   -0.8281    1.8061 C   0  0  0  0  0  0  0  0  0  0  0  0
   -1.7585   -0.1184   -1.0323 C   0  0  0  0  0  0  0  0  0  0  0  0
    4.5813   -1.0949    1.4378 C   0  0  0  0  0  0  0  0  0  0  0  0
   -0.0836   -2.8102    1.2822 C   0  0  0  0  0  0  0  0  0  0  0  0
   -2.1176    0.4965    1.3865 C   0  0  0  0  0  0  0  0  0  0  0  0
   -2.7524    0.3993    0.0033 C   0  0  2  0  0  0  0  0  0  0  0  0
    6.1607    0.9958    0.1077 C   0  0  0  0  0  0  0  0  0  0  0  0
    7.2447    0.8097    1.0368 C   0  0  0  0  0  0  0  0  0  0  0  0
    6.4247    0.8382   -1.1933 C   0  0  0  0  0  0  0  0  0  0  0  0
   -5.0772    0.1905   -0.3181 C   0  0  2  0  0  0  0  0  0  0  0  0
    8.4697    0.4913    0.6074 C   0  0  0  0  0  0  0  0  0  0  0  0
   -6.2352   -0.8138   -0.2582 C   0  0  2  0  0  0  0  0  0  0  0  0
    8.7399    0.3234   -0.8359 C   0  0  0  0  0  0  0  0  0  0  0  0
   -7.5737   -0.1335   -0.5535 C   0  0  1  0  0  0  0  0  0  0  0  0
   -6.4899    2.0352    0.2023 C   0  0  1  0  0  0  0  0  0  0  0  0
   -7.7312    1.1378    0.2935 C   0  0  1  0  0  0  0  0  0  0  0  0
   -6.5843    3.2233    1.1551 C   0  0  0  0  0  0  0  0  0  0  0  0
   -7.5170   -0.9965   -2.7373 C   0  0  0  0  0  0  0  0  0  0  0  0
    2.1968   -1.9509   -0.1127 H   0  0  0  0  0  0  0  0  0  0  0  0
    0.5395    0.5371    0.4637 H   0  0  0  0  0  0  0  0  0  0  0  0
   -1.8970   -2.1939   -0.5971 H   0  0  0  0  0  0  0  0  0  0  0  0
    1.9192   -1.3164    2.4536 H   0  0  0  0  0  0  0  0  0  0  0  0
    0.9211    0.0734    2.8418 H   0  0  0  0  0  0  0  0  0  0  0  0
    2.4302    1.6062    1.7877 H   0  0  0  0  0  0  0  0  0  0  0  0
    3.2825    0.6525    2.9777 H   0  0  0  0  0  0  0  0  0  0  0  0
    4.9536    1.9431    1.5640 H   0  0  0  0  0  0  0  0  0  0  0  0
    1.8570   -1.4993   -2.4694 H   0  0  0  0  0  0  0  0  0  0  0  0
    0.9186   -0.0607   -2.1264 H   0  0  0  0  0  0  0  0  0  0  0  0
    1.9597    1.7874   -0.6623 H   0  0  0  0  0  0  0  0  0  0  0  0
    2.9761    1.4190   -2.0605 H   0  0  0  0  0  0  0  0  0  0  0  0
    0.1846   -2.9530   -1.5167 H   0  0  0  0  0  0  0  0  0  0  0  0
   -0.5783   -1.8899   -2.6745 H   0  0  0  0  0  0  0  0  0  0  0  0
    3.5774    3.0677    0.1803 H   0  0  0  0  0  0  0  0  0  0  0  0
    4.6591    2.7151   -1.1297 H   0  0  0  0  0  0  0  0  0  0  0  0
   -1.0533   -0.7199    2.8076 H   0  0  0  0  0  0  0  0  0  0  0  0
   -2.3046   -1.5460    1.9282 H   0  0  0  0  0  0  0  0  0  0  0  0
   -2.2808   -0.2743   -1.9851 H   0  0  0  0  0  0  0  0  0  0  0  0
   -1.0042    0.6558   -1.2091 H   0  0  0  0  0  0  0  0  0  0  0  0
    5.0688   -0.8927    2.3983 H   0  0  0  0  0  0  0  0  0  0  0  0
    3.8963   -1.9342    1.5924 H   0  0  0  0  0  0  0  0  0  0  0  0
    5.3508   -1.4534    0.7478 H   0  0  0  0  0  0  0  0  0  0  0  0
    0.6489   -3.3131    0.6471 H   0  0  0  0  0  0  0  0  0  0  0  0
    0.2984   -2.8076    2.3076 H   0  0  0  0  0  0  0  0  0  0  0  0
   -1.3674    1.2946    1.4012 H   0  0  0  0  0  0  0  0  0  0  0  0
   -2.8832    0.7632    2.1250 H   0  0  0  0  0  0  0  0  0  0  0  0
   -3.0510    1.4093   -0.3075 H   0  0  0  0  0  0  0  0  0  0  0  0
    4.1239   -1.6476   -1.0929 H   0  0  0  0  0  0  0  0  0  0  0  0
   -1.0594   -4.4541    1.5816 H   0  0  0  0  0  0  0  0  0  0  0  0
    7.0569    0.9304    2.0984 H   0  0  0  0  0  0  0  0  0  0  0  0
    5.7465    0.9533   -2.0256 H   0  0  0  0  0  0  0  0  0  0  0  0
   -4.9673    0.5644   -1.3450 H   0  0  0  0  0  0  0  0  0  0  0  0
    9.2907    0.3491    1.3004 H   0  0  0  0  0  0  0  0  0  0  0  0
   -6.0138   -1.6592   -0.9128 H   0  0  0  0  0  0  0  0  0  0  0  0
   -8.4103   -0.7996   -0.3027 H   0  0  0  0  0  0  0  0  0  0  0  0
   -6.3700    2.4300   -0.8148 H   0  0  0  0  0  0  0  0  0  0  0  0
   -7.8809    0.8308    1.3367 H   0  0  0  0  0  0  0  0  0  0  0  0
   -6.2379   -0.6499    1.6992 H   0  0  0  0  0  0  0  0  0  0  0  0
   -5.6528    3.8000    1.1333 H   0  0  0  0  0  0  0  0  0  0  0  0
   -7.4067    3.8944    0.8921 H   0  0  0  0  0  0  0  0  0  0  0  0
   -6.7187    2.8872    2.1892 H   0  0  0  0  0  0  0  0  0  0  0  0
   -9.0899    2.5130    0.5767 H   0  0  0  0  0  0  0  0  0  0  0  0
   -7.9750   -0.7920   -3.7101 H   0  0  0  0  0  0  0  0  0  0  0  0
   -6.4614   -1.2116   -2.9266 H   0  0  0  0  0  0  0  0  0  0  0  0
   -8.0283   -1.8630   -2.3052 H   0  0  0  0  0  0  0  0  0  0  0  0
  1 11  1  0  0  0  0
  1 69  1  0  0  0  0
  2 26  1  0  0  0  0
  2 70  1  0  0  0  0
  3 28  1  0  0  0  0
  3 32  1  0  0  0  0
  4 31  1  0  0  0  0
  4 35  1  0  0  0  0
  5 32  1  0  0  0  0
  5 37  1  0  0  0  0
  6 34  1  0  0  0  0
  6 79  1  0  0  0  0
  7 36  1  0  0  0  0
  7 40  1  0  0  0  0
  8 35  2  0  0  0  0
  9 38  1  0  0  0  0
  9 83  1  0  0  0  0
 10 11  1  0  0  0  0
 10 12  1  0  0  0  0
 10 19  1  0  0  0  0
 10 41  1  0  0  0  0
 11 13  1  0  0  0  0
 11 20  1  0  0  0  0
 12 14  1  0  0  0  0
 12 16  1  0  0  0  0
 12 42  1  0  0  0  0
 13 17  1  0  0  0  0
 13 18  1  0  0  0  0
 13 25  1  0  0  0  0
 14 15  1  0  0  0  0
 14 23  1  0  0  0  0
 14 26  1  0  0  0  0
 15 21  1  0  0  0  0
 15 24  1  0  0  0  0
 15 43  1  0  0  0  0
 16 17  1  0  0  0  0
 16 44  1  0  0  0  0
 16 45  1  0  0  0  0
 17 46  1  0  0  0  0
 17 47  1  0  0  0  0
 18 22  1  0  0  0  0
 18 29  1  0  0  0  0
 18 48  1  0  0  0  0
 19 21  1  0  0  0  0
 19 49  1  0  0  0  0
 19 50  1  0  0  0  0
 20 22  1  0  0  0  0
 20 51  1  0  0  0  0
 20 52  1  0  0  0  0
 21 53  1  0  0  0  0
 21 54  1  0  0  0  0
 22 55  1  0  0  0  0
 22 56  1  0  0  0  0
 23 27  1  0  0  0  0
 23 57  1  0  0  0  0
 23 58  1  0  0  0  0
 24 28  1  0  0  0  0
 24 59  1  0  0  0  0
 24 60  1  0  0  0  0
 25 61  1  0  0  0  0
 25 62  1  0  0  0  0
 25 63  1  0  0  0  0
 26 64  1  0  0  0  0
 26 65  1  0  0  0  0
 27 28  1  0  0  0  0
 27 66  1  0  0  0  0
 27 67  1  0  0  0  0
 28 68  1  0  0  0  0
 29 30  1  0  0  0  0
 29 31  2  0  0  0  0
 30 33  2  0  0  0  0
 30 71  1  0  0  0  0
 31 72  1  0  0  0  0
 32 34  1  0  0  0  0
 32 73  1  0  0  0  0
 33 35  1  0  0  0  0
 33 74  1  0  0  0  0
 34 36  1  0  0  0  0
 34 75  1  0  0  0  0
 36 38  1  0  0  0  0
 36 76  1  0  0  0  0
 37 38  1  0  0  0  0
 37 39  1  0  0  0  0
 37 77  1  0  0  0  0
 38 78  1  0  0  0  0
 39 80  1  0  0  0  0
 39 81  1  0  0  0  0
 39 82  1  0  0  0  0
 40 84  1  0  0  0  0
 40 85  1  0  0  0  0
 40 86  1  0  0  0  0
M  END
> <PUBCHEM_COMPOUND_CID>
10091

> <PUBCHEM_CONFORMER_RMSD>
1

> <PUBCHEM_CONFORMER_DIVERSEORDER>
18
174
96
32
67
75
43
90
156
178
114
230
161
180
14
21
87
85
158
112
218
60
89
23
182
122
115
19
13
169
170
224
229
204
41
194
136
103
131
118
71
190
26
220
116
34
48
153
82
181
63
223
88
183
94
146
159
199
24
50
100
216
76
142
101
73
167
86
140
35
111
135
187
206
70
110
4
202
162
129
147
37
125
22
126
72
201
219
99
83
152
77
137
127
130
154
231
145
54
166
3
197
49
78
29
113
10
196
222
61
79
173
52
221
25
46
91
120
8
214
57
80
11
186
5
200
106
31
227
74
109
165
144
108
232
192
95
98
141
217
81
17
40
68
38
185
93
102
168
171
150
205
191
51
211
121
179
208
65
132
149
209
160
225
33
28
139
128
138
6
188
228
124
151
15
105
172
45
123
175
143
117
44
203
226
97
64
189
163
27
92
176
69
107
56
36
30
213
58
84
66
9
62
20
104
16
2
177
164
184
155
195
53
207
133
47
210
157
59
198
42
148
212
39
12
215
134
193
1
7
119
55

> <PUBCHEM_MMFF94_PARTIAL_CHARGES>
31
1 -0.68
11 0.28
18 0.14
2 -0.68
26 0.28
28 0.28
29 -0.14
3 -0.56
30 -0.15
31 -0.07
32 0.56
33 -0.14
34 0.28
35 0.71
36 0.28
37 0.28
38 0.28
4 -0.23
40 0.28
5 -0.56
6 -0.68
69 0.4
7 -0.56
70 0.4
71 0.15
72 0.15
74 0.15
79 0.4
8 -0.57
83 0.4
9 -0.68

> <PUBCHEM_EFFECTIVE_ROTOR_COUNT>
8.4

> <PUBCHEM_PHARMACOPHORE_FEATURES>
18
1 1 acceptor
1 1 donor
1 2 acceptor
1 2 donor
1 3 acceptor
1 5 acceptor
1 6 acceptor
1 6 donor
1 7 acceptor
1 8 acceptor
1 9 acceptor
1 9 donor
5 11 13 18 20 22 rings
6 10 11 12 13 16 17 rings
6 10 12 14 15 19 21 rings
6 14 15 23 24 27 28 rings
6 4 29 30 31 33 35 rings
6 5 32 34 36 37 38 rings

> <PUBCHEM_HEAVY_ATOM_COUNT>
40

> <PUBCHEM_ATOM_DEF_STEREO_COUNT>
8

> <PUBCHEM_ATOM_UDEF_STEREO_COUNT>
5

> <PUBCHEM_BOND_DEF_STEREO_COUNT>
0

> <PUBCHEM_BOND_UDEF_STEREO_COUNT>
0

> <PUBCHEM_ISOTOPIC_ATOM_COUNT>
0

> <PUBCHEM_COMPONENT_COUNT>
1

> <PUBCHEM_CACTVS_TAUTO_COUNT>
1

> <PUBCHEM_CONFORMER_ID>
0000276B00000012

> <PUBCHEM_MMFF94_ENERGY>
158.5089

> <PUBCHEM_FEATURE_SELFOVERLAP>
91.627

> <PUBCHEM_SHAPE_FINGERPRINT>
10165383 225 17847061082446786906
10190206 1 17167854301179816537
10533779 47 16056320651714990025
106641 1 12895069609526089340
10670039 82 17167857599862522841
10674148 151 18410294701558010856
11181472 205 18342171194409838728
11828532 37 16733831857023114654
12422481 6 16200435771678055663
13150687 139 18113332024710477686
13673619 4 9223230732484043727
13782708 43 4823205140053727397
13811026 1 18040714757910848536
13914758 101 18186800271250706526
14294032 229 18335711571780869013
14394314 77 11383840372055756165
14856354 85 18114751439394644383
150020 25 16805327695156307585
15064981 194 17986658295091119490
15064986 96 15051725417715930658
15183329 4 15285357327971779761
15301273 46 14836128775331451352
15320295 40 16950280720225821640
15392192 104 17275101725988444267
15461852 350 17703506597824653563
1577012 14 18410295847686304145
15840311 113 14477238250905288342
16992610 120 18202272607593676086
17852330 162 16733838458979186296
19303781 99 9582646777912403409
19315958 150 16415481579641539330
20105231 36 15574721249689378383
20505436 4 17418099793366379962
21792938 703 6482762902299765757
21792961 116 17240477018292786778
21895431 317 5544657310008462916
23569917 315 4895010916049585508
23576562 1 18043821891898198733
24771293 8 18271240621286927669
24893992 56 18341049627950976785
249057 3 18411699842894662784
2838139 119 18260551082566538805
3178227 256 14333406744970790376
335507 130 18186518783700408613
3552219 110 10663818611360148294
3633792 109 18335697282556407546
4066623 53 16515401859664769120
4149490 64 7060076887914548430
4169191 19 17917999399522807675
4353968 344 16515953874588865640
4461854 278 15123502610540110448
45266715 3 16009019606386156180
5028188 123 17131538437938802302
5219985 9 7348888875515893715
5758199 1 18272369793604759187
6081469 158 17022900173443170288
6691757 9 17561074792516322123
9663363 56 7420948651602656747
9962374 69 6988024761412465545

> <PUBCHEM_SHAPE_MULTIPOLES>
770.36
27.69
2.32
1.94
2.15
0.01
0.1
12.87
10.11
3.32
-0.57
-0.02
-0.73
-1

> <PUBCHEM_SHAPE_SELFOVERLAP>
1652.34

> <PUBCHEM_SHAPE_VOLUME>
419.1

> <PUBCHEM_COORDINATE_TYPE>
2
5
10

$$$$

