7847007
  -OEChem-06241222482D

 41 44  0     0  0  0  0  0  0999 V2000
    4.1671    2.5629    0.0000 S   0  0  0  0  0  0  0  0  0  0  0  0
   10.9348   -4.0320    0.0000 S   0  0  0  0  0  0  0  0  0  0  0  0
    6.8069   -0.0320    0.0000 O   0  0  0  0  0  0  0  0  0  0  0  0
    7.6730    1.4680    0.0000 O   0  0  0  0  0  0  0  0  0  0  0  0
    6.8069   -2.0320    0.0000 O   0  0  0  0  0  0  0  0  0  0  0  0
    4.9718    3.9568    0.0000 N   0  0  0  0  0  0  0  0  0  0  0  0
    8.5390   -2.0320    0.0000 N   0  0  0  0  0  0  0  0  0  0  0  0
   10.3512   -3.2272    0.0000 N   0  0  0  0  0  0  0  0  0  0  0  0
   10.3512   -4.8367    0.0000 N   0  0  0  0  0  0  0  0  0  0  0  0
    5.9409    2.4680    0.0000 C   0  0  0  0  0  0  0  0  0  0  0  0
    5.9409    1.4680    0.0000 C   0  0  0  0  0  0  0  0  0  0  0  0
    5.0749    2.9680    0.0000 C   0  0  0  0  0  0  0  0  0  0  0  0
    3.5000    3.2999    0.0000 C   0  0  0  0  0  0  0  0  0  0  0  0
    4.0000    4.1659    0.0000 C   0  0  0  0  0  0  0  0  0  0  0  0
    8.5390   -3.0320    0.0000 C   0  0  0  0  0  0  0  0  0  0  0  0
    6.8069    0.9680    0.0000 C   0  0  0  0  0  0  0  0  0  0  0  0
    9.4050   -3.5320    0.0000 C   0  0  0  0  0  0  0  0  0  0  0  0
    2.5000    3.2999    0.0000 C   0  0  0  0  0  0  0  0  0  0  0  0
    3.5000    5.0320    0.0000 C   0  0  0  0  0  0  0  0  0  0  0  0
    7.6730   -0.5320    0.0000 C   0  0  0  0  0  0  0  0  0  0  0  0
    9.4050   -4.5320    0.0000 C   0  0  0  0  0  0  0  0  0  0  0  0
    7.6730   -3.5320    0.0000 C   0  0  0  0  0  0  0  0  0  0  0  0
    7.6730   -1.5320    0.0000 C   0  0  0  0  0  0  0  0  0  0  0  0
    2.0000    4.1659    0.0000 C   0  0  0  0  0  0  0  0  0  0  0  0
    2.5000    5.0320    0.0000 C   0  0  0  0  0  0  0  0  0  0  0  0
    8.5390   -5.0320    0.0000 C   0  0  0  0  0  0  0  0  0  0  0  0
    7.6730   -4.5320    0.0000 C   0  0  0  0  0  0  0  0  0  0  0  0
    6.5515    2.3604    0.0000 H   0  0  0  0  0  0  0  0  0  0  0  0
    6.1530    3.0506    0.0000 H   0  0  0  0  0  0  0  0  0  0  0  0
    5.3303    1.5757    0.0000 H   0  0  0  0  0  0  0  0  0  0  0  0
    5.7288    0.8854    0.0000 H   0  0  0  0  0  0  0  0  0  0  0  0
    2.1900    2.7630    0.0000 H   0  0  0  0  0  0  0  0  0  0  0  0
    3.8100    5.5689    0.0000 H   0  0  0  0  0  0  0  0  0  0  0  0
    8.2835   -0.6396    0.0000 H   0  0  0  0  0  0  0  0  0  0  0  0
    7.8850    0.0506    0.0000 H   0  0  0  0  0  0  0  0  0  0  0  0
    9.0759   -1.7220    0.0000 H   0  0  0  0  0  0  0  0  0  0  0  0
    7.1360   -3.2220    0.0000 H   0  0  0  0  0  0  0  0  0  0  0  0
    1.3800    4.1659    0.0000 H   0  0  0  0  0  0  0  0  0  0  0  0
    2.1900    5.5689    0.0000 H   0  0  0  0  0  0  0  0  0  0  0  0
    8.5390   -5.6520    0.0000 H   0  0  0  0  0  0  0  0  0  0  0  0
    7.1360   -4.8420    0.0000 H   0  0  0  0  0  0  0  0  0  0  0  0
  1 12  1  0  0  0  0
  1 13  1  0  0  0  0
  2  8  1  0  0  0  0
  2  9  1  0  0  0  0
  3 16  1  0  0  0  0
  3 20  1  0  0  0  0
  4 16  2  0  0  0  0
  5 23  2  0  0  0  0
  6 12  2  0  0  0  0
  6 14  1  0  0  0  0
  7 15  1  0  0  0  0
  7 23  1  0  0  0  0
  7 36  1  0  0  0  0
  8 17  2  0  0  0  0
  9 21  2  0  0  0  0
 10 11  1  0  0  0  0
 10 12  1  0  0  0  0
 10 28  1  0  0  0  0
 10 29  1  0  0  0  0
 11 16  1  0  0  0  0
 11 30  1  0  0  0  0
 11 31  1  0  0  0  0
 13 14  1  0  0  0  0
 13 18  2  0  0  0  0
 14 19  2  0  0  0  0
 15 17  1  0  0  0  0
 15 22  2  0  0  0  0
 17 21  1  0  0  0  0
 18 24  1  0  0  0  0
 18 32  1  0  0  0  0
 19 25  1  0  0  0  0
 19 33  1  0  0  0  0
 20 23  1  0  0  0  0
 20 34  1  0  0  0  0
 20 35  1  0  0  0  0
 21 26  1  0  0  0  0
 22 27  1  0  0  0  0
 22 37  1  0  0  0  0
 24 25  2  0  0  0  0
 24 38  1  0  0  0  0
 25 39  1  0  0  0  0
 26 27  2  0  0  0  0
 26 40  1  0  0  0  0
 27 41  1  0  0  0  0
M  END
> <PUBCHEM_COMPOUND_CID>
7847007

> <PUBCHEM_COMPOUND_CANONICALIZED>
1

> <PUBCHEM_CACTVS_COMPLEXITY>
553

> <PUBCHEM_CACTVS_HBOND_ACCEPTOR>
8

> <PUBCHEM_CACTVS_HBOND_DONOR>
1

> <PUBCHEM_CACTVS_ROTATABLE_BOND>
7

> <PUBCHEM_CACTVS_SUBSKEYS>
AAADccB7sABgAAAAAAAAAAAAAAAAAWLAAAAwYAAAAAAAAFgB/gAAHgQQQAAACAih1gIwybLIFAisASXyXAKD8KRhGjhImD1wdJgKYLLg0dWXJAhklAD4yAc0AAAAAAAAAAQAASAAAAAACAACQAAAAAAAAA==

> <PUBCHEM_IUPAC_OPENEYE_NAME>
[2-(2,1,3-benzothiadiazol-4-ylamino)-2-oxo-ethyl] 3-(1,3-benzothiazol-2-yl)propanoate

> <PUBCHEM_IUPAC_CAS_NAME>
3-(1,3-benzothiazol-2-yl)propanoic acid [2-(2,1,3-benzothiadiazol-4-ylamino)-2-oxoethyl] ester

> <PUBCHEM_IUPAC_NAME>
[2-(2,1,3-benzothiadiazol-4-ylamino)-2-oxoethyl] 3-(1,3-benzothiazol-2-yl)propanoate

> <PUBCHEM_IUPAC_SYSTEMATIC_NAME>
[2-(2,1,3-benzothiadiazol-4-ylamino)-2-oxidanylidene-ethyl] 3-(1,3-benzothiazol-2-yl)propanoate

> <PUBCHEM_IUPAC_TRADITIONAL_NAME>
3-(1,3-benzothiazol-2-yl)propionic acid [2-keto-2-(piazthiol-4-ylamino)ethyl] ester

> <PUBCHEM_IUPAC_INCHI>
InChI=1S/C18H14N4O3S2/c23-15(19-12-5-3-6-13-18(12)22-27-21-13)10-25-17(24)9-8-16-20-11-4-1-2-7-14(11)26-16/h1-7H,8-10H2,(H,19,23)

> <PUBCHEM_IUPAC_INCHIKEY>
AQFYGCYWLYOQNH-UHFFFAOYSA-N

> <PUBCHEM_XLOGP3_AA>
3.3

> <PUBCHEM_EXACT_MASS>
398.050732

> <PUBCHEM_MOLECULAR_FORMULA>
C18H14N4O3S2

> <PUBCHEM_MOLECULAR_WEIGHT>
398.45876

> <PUBCHEM_OPENEYE_CAN_SMILES>
C1=CC=C2C(=C1)N=C(S2)CCC(=O)OCC(=O)NC3=CC=CC4=NSN=C43

> <PUBCHEM_OPENEYE_ISO_SMILES>
C1=CC=C2C(=C1)N=C(S2)CCC(=O)OCC(=O)NC3=CC=CC4=NSN=C43

> <PUBCHEM_CACTVS_TPSA>
151

> <PUBCHEM_MONOISOTOPIC_WEIGHT>
398.050732

> <PUBCHEM_TOTAL_CHARGE>
0

> <PUBCHEM_HEAVY_ATOM_COUNT>
27

> <PUBCHEM_ATOM_DEF_STEREO_COUNT>
0

> <PUBCHEM_ATOM_UDEF_STEREO_COUNT>
0

> <PUBCHEM_BOND_DEF_STEREO_COUNT>
0

> <PUBCHEM_BOND_UDEF_STEREO_COUNT>
0

> <PUBCHEM_ISOTOPIC_ATOM_COUNT>
0

> <PUBCHEM_COMPONENT_COUNT>
1

> <PUBCHEM_CACTVS_TAUTO_COUNT>
10

> <PUBCHEM_COORDINATE_TYPE>
1
5
255

> <PUBCHEM_BONDANNOTATIONS>
1  12  8
1  13  8
13  14  8
13  18  8
14  19  8
15  17  8
15  22  8
17  21  8
18  24  8
19  25  8
2  8  8
2  9  8
21  26  8
22  27  8
24  25  8
26  27  8
6  12  8
6  14  8
8  17  8
9  21  8

$$$$

