17396214
  -OEChem-06241222552D

 38 40  0     0  0  0  0  0  0999 V2000
    2.9230    0.0412    0.0000 S   0  0  0  0  0  0  0  0  0  0  0  0
    3.6160    4.6453    0.0000 S   0  0  0  0  0  0  0  0  0  0  0  0
    2.8660   -2.0466    0.0000 O   0  0  0  0  0  0  0  0  0  0  0  0
    3.4186    2.8194    0.0000 O   0  0  0  0  0  0  0  0  0  0  0  0
    4.5411    0.0412    0.0000 N   0  0  0  0  0  0  0  0  0  0  0  0
    5.0009    3.5238    0.0000 N   0  0  0  0  0  0  0  0  0  0  0  0
    5.0942    5.3034    0.0000 N   0  0  0  0  0  0  0  0  0  0  0  0
    4.2320    0.9923    0.0000 C   0  0  0  0  0  0  0  0  0  0  0  0
    4.8198    1.8013    0.0000 C   0  0  0  0  0  0  0  0  0  0  0  0
    3.7320   -0.5466    0.0000 C   0  0  0  0  0  0  0  0  0  0  0  0
    3.7320   -1.5466    0.0000 C   0  0  0  0  0  0  0  0  0  0  0  0
    3.2320    0.9923    0.0000 C   0  0  0  0  0  0  0  0  0  0  0  0
    2.8660   -3.0466    0.0000 C   0  0  0  0  0  0  0  0  0  0  0  0
    4.4131    2.7148    0.0000 C   0  0  0  0  0  0  0  0  0  0  0  0
    2.8660   -5.0466    0.0000 C   0  0  0  0  0  0  0  0  0  0  0  0
    2.0000   -3.5466    0.0000 C   0  0  0  0  0  0  0  0  0  0  0  0
    3.7320   -3.5466    0.0000 C   0  0  0  0  0  0  0  0  0  0  0  0
    2.0000   -4.5466    0.0000 C   0  0  0  0  0  0  0  0  0  0  0  0
    3.7320   -4.5466    0.0000 C   0  0  0  0  0  0  0  0  0  0  0  0
    2.8660   -6.0466    0.0000 C   0  0  0  0  0  0  0  0  0  0  0  0
    4.5942    4.4374    0.0000 C   0  0  0  0  0  0  0  0  0  0  0  0
    3.5115    5.6398    0.0000 C   0  0  0  0  0  0  0  0  0  0  0  0
    4.4250    6.0466    0.0000 C   0  0  0  0  0  0  0  0  0  0  0  0
    5.2505    1.3553    0.0000 H   0  0  0  0  0  0  0  0  0  0  0  0
    5.3338    2.1480    0.0000 H   0  0  0  0  0  0  0  0  0  0  0  0
    3.9441   -2.1292    0.0000 H   0  0  0  0  0  0  0  0  0  0  0  0
    4.3426   -1.4389    0.0000 H   0  0  0  0  0  0  0  0  0  0  0  0
    2.8676    1.4939    0.0000 H   0  0  0  0  0  0  0  0  0  0  0  0
    1.4631   -3.2366    0.0000 H   0  0  0  0  0  0  0  0  0  0  0  0
    4.2690   -3.2366    0.0000 H   0  0  0  0  0  0  0  0  0  0  0  0
    1.4631   -4.8566    0.0000 H   0  0  0  0  0  0  0  0  0  0  0  0
    4.2690   -4.8566    0.0000 H   0  0  0  0  0  0  0  0  0  0  0  0
    5.6175    3.4590    0.0000 H   0  0  0  0  0  0  0  0  0  0  0  0
    2.2460   -6.0466    0.0000 H   0  0  0  0  0  0  0  0  0  0  0  0
    2.8660   -6.6666    0.0000 H   0  0  0  0  0  0  0  0  0  0  0  0
    3.4860   -6.0466    0.0000 H   0  0  0  0  0  0  0  0  0  0  0  0
    2.9745    5.9498    0.0000 H   0  0  0  0  0  0  0  0  0  0  0  0
    4.5539    6.6530    0.0000 H   0  0  0  0  0  0  0  0  0  0  0  0
  1 10  1  0  0  0  0
  1 12  1  0  0  0  0
  2 21  1  0  0  0  0
  2 22  1  0  0  0  0
  3 11  1  0  0  0  0
  3 13  1  0  0  0  0
  4 14  2  0  0  0  0
  5  8  1  0  0  0  0
  5 10  2  0  0  0  0
  6 14  1  0  0  0  0
  6 21  1  0  0  0  0
  6 33  1  0  0  0  0
  7 21  2  0  0  0  0
  7 23  1  0  0  0  0
  8  9  1  0  0  0  0
  8 12  2  0  0  0  0
  9 14  1  0  0  0  0
  9 24  1  0  0  0  0
  9 25  1  0  0  0  0
 10 11  1  0  0  0  0
 11 26  1  0  0  0  0
 11 27  1  0  0  0  0
 12 28  1  0  0  0  0
 13 16  2  0  0  0  0
 13 17  1  0  0  0  0
 15 18  2  0  0  0  0
 15 19  1  0  0  0  0
 15 20  1  0  0  0  0
 16 18  1  0  0  0  0
 16 29  1  0  0  0  0
 17 19  2  0  0  0  0
 17 30  1  0  0  0  0
 18 31  1  0  0  0  0
 19 32  1  0  0  0  0
 20 34  1  0  0  0  0
 20 35  1  0  0  0  0
 20 36  1  0  0  0  0
 22 23  2  0  0  0  0
 22 37  1  0  0  0  0
 23 38  1  0  0  0  0
M  END
> <PUBCHEM_COMPOUND_CID>
17396214

> <PUBCHEM_COMPOUND_CANONICALIZED>
1

> <PUBCHEM_CACTVS_COMPLEXITY>
392

> <PUBCHEM_CACTVS_HBOND_ACCEPTOR>
6

> <PUBCHEM_CACTVS_HBOND_DONOR>
1

> <PUBCHEM_CACTVS_ROTATABLE_BOND>
6

> <PUBCHEM_CACTVS_SUBSKEYS>
AAADccB7MABgAAAAAAAAAAAAAAAAAWLAAAAwAAAAAAAAAAAB8AAAHgQQAAAADAzl3ga/l5LIFAisAzV3dAQC+KlxKjlJyB0+KIiOJjqk/RuHOCCs0RO4qCeAwAAOIAAAAAAAAABAAAAAAAAAAAAAAAAAAA==

> <PUBCHEM_IUPAC_OPENEYE_NAME>
2-[2-[(4-methylphenoxy)methyl]thiazol-4-yl]-N-thiazol-2-yl-acetamide

> <PUBCHEM_IUPAC_CAS_NAME>
2-[2-[(4-methylphenoxy)methyl]-4-thiazolyl]-N-(2-thiazolyl)acetamide

> <PUBCHEM_IUPAC_NAME>
2-[2-[(4-methylphenoxy)methyl]-1,3-thiazol-4-yl]-N-(1,3-thiazol-2-yl)acetamide

> <PUBCHEM_IUPAC_SYSTEMATIC_NAME>
2-[2-[(4-methylphenoxy)methyl]-1,3-thiazol-4-yl]-N-(1,3-thiazol-2-yl)ethanamide

> <PUBCHEM_IUPAC_TRADITIONAL_NAME>
2-[2-[(4-methylphenoxy)methyl]thiazol-4-yl]-N-thiazol-2-yl-acetamide

> <PUBCHEM_IUPAC_INCHI>
InChI=1S/C16H15N3O2S2/c1-11-2-4-13(5-3-11)21-9-15-18-12(10-23-15)8-14(20)19-16-17-6-7-22-16/h2-7,10H,8-9H2,1H3,(H,17,19,20)

> <PUBCHEM_IUPAC_INCHIKEY>
JOXHMKOEPPJVAJ-UHFFFAOYSA-N

> <PUBCHEM_XLOGP3_AA>
3

> <PUBCHEM_EXACT_MASS>
345.060569

> <PUBCHEM_MOLECULAR_FORMULA>
C16H15N3O2S2

> <PUBCHEM_MOLECULAR_WEIGHT>
345.4392

> <PUBCHEM_OPENEYE_CAN_SMILES>
CC1=CC=C(C=C1)OCC2=NC(=CS2)CC(=O)NC3=NC=CS3

> <PUBCHEM_OPENEYE_ISO_SMILES>
CC1=CC=C(C=C1)OCC2=NC(=CS2)CC(=O)NC3=NC=CS3

> <PUBCHEM_CACTVS_TPSA>
121

> <PUBCHEM_MONOISOTOPIC_WEIGHT>
345.060569

> <PUBCHEM_TOTAL_CHARGE>
0

> <PUBCHEM_HEAVY_ATOM_COUNT>
23

> <PUBCHEM_ATOM_DEF_STEREO_COUNT>
0

> <PUBCHEM_ATOM_UDEF_STEREO_COUNT>
0

> <PUBCHEM_BOND_DEF_STEREO_COUNT>
0

> <PUBCHEM_BOND_UDEF_STEREO_COUNT>
0

> <PUBCHEM_ISOTOPIC_ATOM_COUNT>
0

> <PUBCHEM_COMPONENT_COUNT>
1

> <PUBCHEM_CACTVS_TAUTO_COUNT>
5

> <PUBCHEM_COORDINATE_TYPE>
1
5
255

> <PUBCHEM_BONDANNOTATIONS>
1  10  8
1  12  8
13  16  8
13  17  8
15  18  8
15  19  8
16  18  8
17  19  8
2  21  8
2  22  8
22  23  8
5  10  8
5  8  8
7  21  8
7  23  8
8  12  8

$$$$

