7553
  -OEChem-06261202092D

 31 31  0     0  0  0  0  0  0999 V2000
    4.5981    2.8450    0.0000 O   0  0  0  0  0  0  0  0  0  0  0  0
    6.3301   -0.1550    0.0000 O   0  0  0  0  0  0  0  0  0  0  0  0
    3.7320    0.3450    0.0000 N   0  0  0  0  0  0  0  0  0  0  0  0
    2.8660   -0.1550    0.0000 C   0  0  0  0  0  0  0  0  0  0  0  0
    3.7320    1.3450    0.0000 C   0  0  0  0  0  0  0  0  0  0  0  0
    4.5981   -0.1550    0.0000 C   0  0  0  0  0  0  0  0  0  0  0  0
    2.8660   -1.1550    0.0000 C   0  0  0  0  0  0  0  0  0  0  0  0
    4.5981    1.8450    0.0000 C   0  0  0  0  0  0  0  0  0  0  0  0
    5.4641    0.3450    0.0000 C   0  0  0  0  0  0  0  0  0  0  0  0
    2.0000   -1.6550    0.0000 C   0  0  0  0  0  0  0  0  0  0  0  0
    3.7320   -1.6550    0.0000 C   0  0  0  0  0  0  0  0  0  0  0  0
    2.0000   -2.6550    0.0000 C   0  0  0  0  0  0  0  0  0  0  0  0
    3.7320   -2.6550    0.0000 C   0  0  0  0  0  0  0  0  0  0  0  0
    2.8660   -3.1550    0.0000 C   0  0  0  0  0  0  0  0  0  0  0  0
    2.6540    0.4276    0.0000 H   0  0  0  0  0  0  0  0  0  0  0  0
    2.2554   -0.2627    0.0000 H   0  0  0  0  0  0  0  0  0  0  0  0
    3.5200    1.9276    0.0000 H   0  0  0  0  0  0  0  0  0  0  0  0
    3.1215    1.2373    0.0000 H   0  0  0  0  0  0  0  0  0  0  0  0
    4.1996   -0.6299    0.0000 H   0  0  0  0  0  0  0  0  0  0  0  0
    4.9966   -0.6299    0.0000 H   0  0  0  0  0  0  0  0  0  0  0  0
    4.8101    1.2624    0.0000 H   0  0  0  0  0  0  0  0  0  0  0  0
    5.2087    1.9527    0.0000 H   0  0  0  0  0  0  0  0  0  0  0  0
    5.8626    0.8199    0.0000 H   0  0  0  0  0  0  0  0  0  0  0  0
    5.0656    0.8199    0.0000 H   0  0  0  0  0  0  0  0  0  0  0  0
    1.4631   -1.3450    0.0000 H   0  0  0  0  0  0  0  0  0  0  0  0
    4.2690   -1.3450    0.0000 H   0  0  0  0  0  0  0  0  0  0  0  0
    1.4631   -2.9650    0.0000 H   0  0  0  0  0  0  0  0  0  0  0  0
    4.2690   -2.9650    0.0000 H   0  0  0  0  0  0  0  0  0  0  0  0
    2.8660   -3.7750    0.0000 H   0  0  0  0  0  0  0  0  0  0  0  0
    5.1350    3.1550    0.0000 H   0  0  0  0  0  0  0  0  0  0  0  0
    6.8671    0.1550    0.0000 H   0  0  0  0  0  0  0  0  0  0  0  0
  1  8  1  0  0  0  0
  1 30  1  0  0  0  0
  2  9  1  0  0  0  0
  2 31  1  0  0  0  0
  3  4  1  0  0  0  0
  3  5  1  0  0  0  0
  3  6  1  0  0  0  0
  4  7  1  0  0  0  0
  4 15  1  0  0  0  0
  4 16  1  0  0  0  0
  5  8  1  0  0  0  0
  5 17  1  0  0  0  0
  5 18  1  0  0  0  0
  6  9  1  0  0  0  0
  6 19  1  0  0  0  0
  6 20  1  0  0  0  0
  7 10  2  0  0  0  0
  7 11  1  0  0  0  0
  8 21  1  0  0  0  0
  8 22  1  0  0  0  0
  9 23  1  0  0  0  0
  9 24  1  0  0  0  0
 10 12  1  0  0  0  0
 10 25  1  0  0  0  0
 11 13  2  0  0  0  0
 11 26  1  0  0  0  0
 12 14  2  0  0  0  0
 12 27  1  0  0  0  0
 13 14  1  0  0  0  0
 13 28  1  0  0  0  0
 14 29  1  0  0  0  0
M  END
> <PUBCHEM_COMPOUND_CID>
7553

> <PUBCHEM_COMPOUND_CANONICALIZED>
1

> <PUBCHEM_CACTVS_COMPLEXITY>
129

> <PUBCHEM_CACTVS_HBOND_ACCEPTOR>
3

> <PUBCHEM_CACTVS_HBOND_DONOR>
2

> <PUBCHEM_CACTVS_ROTATABLE_BOND>
6

> <PUBCHEM_CACTVS_SUBSKEYS>
AAADceByMAAAAAAAAAAAAAAAAAAAAAAAAAAwAAAAAAAAAAABAAAAHgAACAAADADhmAYwAIMAAgCAAiBCAACCAAAgAAAIiAAIBIgKMCKAkRGEIAhggACYiAcQgAAOAAAAAAAAAAAAAAAAAAAAAAAAAAAAAA==

> <PUBCHEM_IUPAC_OPENEYE_NAME>
2-[benzyl(2-hydroxyethyl)amino]ethanol

> <PUBCHEM_IUPAC_CAS_NAME>
2-[2-hydroxyethyl-(phenylmethyl)amino]ethanol

> <PUBCHEM_IUPAC_NAME>
2-[benzyl(2-hydroxyethyl)amino]ethanol

> <PUBCHEM_IUPAC_SYSTEMATIC_NAME>
2-[2-hydroxyethyl-(phenylmethyl)amino]ethanol

> <PUBCHEM_IUPAC_TRADITIONAL_NAME>
2-[benzyl(2-hydroxyethyl)amino]ethanol

> <PUBCHEM_IUPAC_INCHI>
InChI=1S/C11H17NO2/c13-8-6-12(7-9-14)10-11-4-2-1-3-5-11/h1-5,13-14H,6-10H2

> <PUBCHEM_IUPAC_INCHIKEY>
MIZIOHLLYXVEHJ-UHFFFAOYSA-N

> <PUBCHEM_XLOGP3_AA>
0.4

> <PUBCHEM_EXACT_MASS>
195.125929

> <PUBCHEM_MOLECULAR_FORMULA>
C11H17NO2

> <PUBCHEM_MOLECULAR_WEIGHT>
195.25818

> <PUBCHEM_OPENEYE_CAN_SMILES>
C1=CC=C(C=C1)CN(CCO)CCO

> <PUBCHEM_OPENEYE_ISO_SMILES>
C1=CC=C(C=C1)CN(CCO)CCO

> <PUBCHEM_CACTVS_TPSA>
43.7

> <PUBCHEM_MONOISOTOPIC_WEIGHT>
195.125929

> <PUBCHEM_TOTAL_CHARGE>
0

> <PUBCHEM_HEAVY_ATOM_COUNT>
14

> <PUBCHEM_ATOM_DEF_STEREO_COUNT>
0

> <PUBCHEM_ATOM_UDEF_STEREO_COUNT>
0

> <PUBCHEM_BOND_DEF_STEREO_COUNT>
0

> <PUBCHEM_BOND_UDEF_STEREO_COUNT>
0

> <PUBCHEM_ISOTOPIC_ATOM_COUNT>
0

> <PUBCHEM_COMPONENT_COUNT>
1

> <PUBCHEM_CACTVS_TAUTO_COUNT>
1

> <PUBCHEM_COORDINATE_TYPE>
1
5
255

> <PUBCHEM_BONDANNOTATIONS>
10  12  8
11  13  8
12  14  8
13  14  8
7  10  8
7  11  8

$$$$

