17395846
  -OEChem-06241222523D

 51 54  0     1  0  0  0  0  0999 V2000
    3.9783    0.1618    2.1733 O   0  0  0  0  0  0  0  0  0  0  0  0
    2.5064   -0.1340   -2.2003 O   0  0  0  0  0  0  0  0  0  0  0  0
    3.2698    0.3916   -0.0504 N   0  0  0  0  0  0  0  0  0  0  0  0
    1.9038    2.3221   -0.4182 N   0  0  1  0  0  0  0  0  0  0  0  0
   -2.2732    1.7389   -0.4102 N   0  0  0  0  0  0  0  0  0  0  0  0
   -2.5763    2.6751    0.5052 N   0  0  0  0  0  0  0  0  0  0  0  0
    3.2309   -1.7457    0.8739 C   0  0  2  0  0  0  0  0  0  0  0  0
    3.2967   -1.8465   -0.6538 C   0  0  1  0  0  0  0  0  0  0  0  0
    1.8464   -2.0178    1.4848 C   0  0  0  0  0  0  0  0  0  0  0  0
    2.4793   -2.9644   -1.2926 C   0  0  0  0  0  0  0  0  0  0  0  0
    3.5784   -0.2909    1.1103 C   0  0  0  0  0  0  0  0  0  0  0  0
    2.9368   -0.4444   -1.1000 C   0  0  0  0  0  0  0  0  0  0  0  0
    0.9643   -2.9267    0.6929 C   0  0  0  0  0  0  0  0  0  0  0  0
    1.2454   -3.3489   -0.5437 C   0  0  0  0  0  0  0  0  0  0  0  0
    3.2615    1.8367   -0.1607 C   0  0  0  0  0  0  0  0  0  0  0  0
    1.1172    2.2872    0.8170 C   0  0  0  0  0  0  0  0  0  0  0  0
    1.9112    3.6837   -0.9608 C   0  0  0  0  0  0  0  0  0  0  0  0
   -0.3364    2.2279    0.4737 C   0  0  0  0  0  0  0  0  0  0  0  0
   -0.9448    1.4353   -0.4689 C   0  0  0  0  0  0  0  0  0  0  0  0
   -1.3892    2.9700    1.0419 C   0  0  0  0  0  0  0  0  0  0  0  0
   -3.3207    1.1581   -1.2154 C   0  0  0  0  0  0  0  0  0  0  0  0
   -3.9053   -0.0630   -0.5585 C   0  0  0  0  0  0  0  0  0  0  0  0
   -4.9917    0.0635    0.3074 C   0  0  0  0  0  0  0  0  0  0  0  0
   -3.3614   -1.3215   -0.8155 C   0  0  0  0  0  0  0  0  0  0  0  0
   -5.5339   -1.0683    0.9162 C   0  0  0  0  0  0  0  0  0  0  0  0
   -3.9037   -2.4533   -0.2067 C   0  0  0  0  0  0  0  0  0  0  0  0
   -4.9899   -2.3266    0.6592 C   0  0  0  0  0  0  0  0  0  0  0  0
    3.9905   -2.3910    1.3288 H   0  0  0  0  0  0  0  0  0  0  0  0
    4.3457   -1.9741   -0.9608 H   0  0  0  0  0  0  0  0  0  0  0  0
    1.2941   -1.0845    1.6529 H   0  0  0  0  0  0  0  0  0  0  0  0
    1.9925   -2.4560    2.4803 H   0  0  0  0  0  0  0  0  0  0  0  0
    2.1999   -2.6963   -2.3179 H   0  0  0  0  0  0  0  0  0  0  0  0
    3.1060   -3.8623   -1.3655 H   0  0  0  0  0  0  0  0  0  0  0  0
    0.0387   -3.2517    1.1601 H   0  0  0  0  0  0  0  0  0  0  0  0
    0.5490   -4.0184   -1.0411 H   0  0  0  0  0  0  0  0  0  0  0  0
    3.7070    2.2974    0.7293 H   0  0  0  0  0  0  0  0  0  0  0  0
    3.9029    2.0703   -1.0194 H   0  0  0  0  0  0  0  0  0  0  0  0
    1.3238    1.3863    1.4068 H   0  0  0  0  0  0  0  0  0  0  0  0
    1.3382    3.1412    1.4702 H   0  0  0  0  0  0  0  0  0  0  0  0
    2.4630    3.7092   -1.9074 H   0  0  0  0  0  0  0  0  0  0  0  0
    2.3805    4.3988   -0.2752 H   0  0  0  0  0  0  0  0  0  0  0  0
    0.8989    4.0343   -1.1889 H   0  0  0  0  0  0  0  0  0  0  0  0
   -0.5551    0.6969   -1.1569 H   0  0  0  0  0  0  0  0  0  0  0  0
   -1.3433    3.7138    1.8245 H   0  0  0  0  0  0  0  0  0  0  0  0
   -4.0887    1.9219   -1.3873 H   0  0  0  0  0  0  0  0  0  0  0  0
   -2.8995    0.9108   -2.1974 H   0  0  0  0  0  0  0  0  0  0  0  0
   -5.4244    1.0384    0.5162 H   0  0  0  0  0  0  0  0  0  0  0  0
   -2.5142   -1.4339   -1.4871 H   0  0  0  0  0  0  0  0  0  0  0  0
   -6.3795   -0.9697    1.5906 H   0  0  0  0  0  0  0  0  0  0  0  0
   -3.4793   -3.4330   -0.4060 H   0  0  0  0  0  0  0  0  0  0  0  0
   -5.4118   -3.2078    1.1336 H   0  0  0  0  0  0  0  0  0  0  0  0
  1 11  2  0  0  0  0
  2 12  2  0  0  0  0
  3 11  1  0  0  0  0
  3 12  1  0  0  0  0
  3 15  1  0  0  0  0
  4 15  1  0  0  0  0
  4 16  1  0  0  0  0
  4 17  1  0  0  0  0
  5  6  1  0  0  0  0
  5 19  1  0  0  0  0
  5 21  1  0  0  0  0
  6 20  2  0  0  0  0
  7  8  1  0  0  0  0
  7  9  1  0  0  0  0
  7 11  1  0  0  0  0
  7 28  1  0  0  0  0
  8 10  1  0  0  0  0
  8 12  1  0  0  0  0
  8 29  1  0  0  0  0
  9 13  1  0  0  0  0
  9 30  1  0  0  0  0
  9 31  1  0  0  0  0
 10 14  1  0  0  0  0
 10 32  1  0  0  0  0
 10 33  1  0  0  0  0
 13 14  2  0  0  0  0
 13 34  1  0  0  0  0
 14 35  1  0  0  0  0
 15 36  1  0  0  0  0
 15 37  1  0  0  0  0
 16 18  1  0  0  0  0
 16 38  1  0  0  0  0
 16 39  1  0  0  0  0
 17 40  1  0  0  0  0
 17 41  1  0  0  0  0
 17 42  1  0  0  0  0
 18 19  2  0  0  0  0
 18 20  1  0  0  0  0
 19 43  1  0  0  0  0
 20 44  1  0  0  0  0
 21 22  1  0  0  0  0
 21 45  1  0  0  0  0
 21 46  1  0  0  0  0
 22 23  2  0  0  0  0
 22 24  1  0  0  0  0
 23 25  1  0  0  0  0
 23 47  1  0  0  0  0
 24 26  2  0  0  0  0
 24 48  1  0  0  0  0
 25 27  2  0  0  0  0
 25 49  1  0  0  0  0
 26 27  1  0  0  0  0
 26 50  1  0  0  0  0
 27 51  1  0  0  0  0
M  END
> <PUBCHEM_COMPOUND_CID>
17395846

> <PUBCHEM_CONFORMER_RMSD>
1.2

> <PUBCHEM_CONFORMER_DIVERSEORDER>
3
44
53
17
13
87
46
42
5
26
47
10
54
24
92
55
102
75
25
69
50
72
95
52
58
4
33
18
97
89
101
62
43
103
35
96
91
88
79
57
12
74
29
38
37
7
2
85
99
56
9
36
6
23
83
22
11
60
14
73
94
100
78
20
15
34
76
90
77
32
70
71
30
40
65
16
82
39
64
48
45
1
8
63
41
59
19
66
68
86
98
28
84
31
21
27
49
81
51
67
93
80
61

> <PUBCHEM_MMFF94_PARTIAL_CHARGES>
36
1 -0.57
10 0.14
11 0.57
12 0.57
13 -0.29
14 -0.29
15 0.57
16 0.45
17 0.27
18 -0.18
19 -0.3
2 -0.57
20 0.14
21 0.4
22 -0.14
23 -0.15
24 -0.15
25 -0.15
26 -0.15
27 -0.15
3 -0.42
34 0.15
35 0.15
4 -0.81
43 0.15
44 0.15
47 0.15
48 0.15
49 0.15
5 0.31
50 0.15
51 0.15
6 -0.71
7 0.06
8 0.06
9 0.14

> <PUBCHEM_EFFECTIVE_ROTOR_COUNT>
6.6

> <PUBCHEM_PHARMACOPHORE_FEATURES>
8
1 1 acceptor
1 2 acceptor
1 4 cation
1 6 acceptor
5 3 7 8 11 12 rings
5 5 6 18 19 20 rings
6 22 23 24 25 26 27 rings
6 7 8 9 10 13 14 rings

> <PUBCHEM_HEAVY_ATOM_COUNT>
27

> <PUBCHEM_ATOM_DEF_STEREO_COUNT>
0

> <PUBCHEM_ATOM_UDEF_STEREO_COUNT>
2

> <PUBCHEM_BOND_DEF_STEREO_COUNT>
0

> <PUBCHEM_BOND_UDEF_STEREO_COUNT>
0

> <PUBCHEM_ISOTOPIC_ATOM_COUNT>
0

> <PUBCHEM_COMPONENT_COUNT>
1

> <PUBCHEM_CACTVS_TAUTO_COUNT>
3

> <PUBCHEM_CONFORMER_ID>
0109708600000003

> <PUBCHEM_MMFF94_ENERGY>
48.0209

> <PUBCHEM_FEATURE_SELFOVERLAP>
40.775

> <PUBCHEM_SHAPE_FINGERPRINT>
108634 29 18272924995231976690
12166972 35 17632860854115884890
12553582 1 18335423465395388415
12978246 48 18410299081728177363
13122387 1 17976825603238371943
13224815 77 18341047527258443923
13402501 40 18269272374628288899
14114211 80 17688282635082309703
14178342 30 18264496255099604720
17909252 39 18115856559532952830
19301679 30 18200026219886942995
20764821 26 18052260592038461919
20775530 9 18195810897230532143
21197605 99 17980474560266864691
21315759 227 18342748424607143535
21421861 104 18337660962841526641
23559900 14 18335983176505644781
238 59 18201141179578360432
392239 28 17751669613810241096
445580 102 18410580574069451503
463206 1 18125718143382410168
5309563 4 18265052445053771411
6433294 58 18411417293759578759
6823239 73 18115295795617009118
79837 15 16097713558340092865

> <PUBCHEM_SHAPE_MULTIPOLES>
523.98
10.1
4.72
1.48
11.42
0.68
-0.03
-4.54
-1.22
-1.24
0.15
-1.13
-0.2
0.15

> <PUBCHEM_SHAPE_SELFOVERLAP>
1129.225

> <PUBCHEM_SHAPE_VOLUME>
289.1

> <PUBCHEM_COORDINATE_TYPE>
2
5
10

$$$$

