5599
  -OEChem-06261200463D

 25 26  0     0  0  0  0  0  0999 V2000
    3.5181   -1.5283   -0.4430 O   0  0  0  0  0  0  0  0  0  0  0  0
    1.8989   -1.5133    1.1861 O   0  0  0  0  0  0  0  0  0  0  0  0
   -1.7137    2.0146    0.4010 N   0  0  0  0  0  0  0  0  0  0  0  0
    3.1144    1.3172    0.6276 N   0  0  0  0  0  0  0  0  0  0  0  0
    0.0577    1.0481   -0.5235 C   0  0  0  0  0  0  0  0  0  0  0  0
   -0.9532    0.0601   -0.3597 C   0  0  0  0  0  0  0  0  0  0  0  0
   -2.0540    0.6926    0.2223 C   0  0  0  0  0  0  0  0  0  0  0  0
    1.4023    0.8440   -1.0997 C   0  0  0  0  0  0  0  0  0  0  0  0
   -0.4396    2.2391   -0.0468 C   0  0  0  0  0  0  0  0  0  0  0  0
   -1.0378   -1.3158   -0.6515 C   0  0  0  0  0  0  0  0  0  0  0  0
   -3.2397    0.0153    0.5284 C   0  0  0  0  0  0  0  0  0  0  0  0
    2.4068    0.4654   -0.0355 C   0  0  0  0  0  0  0  0  0  0  0  0
   -2.2176   -2.0062   -0.3510 C   0  0  0  0  0  0  0  0  0  0  0  0
   -3.3003   -1.3489    0.2299 C   0  0  0  0  0  0  0  0  0  0  0  0
    2.5578   -0.9836    0.3152 C   0  0  0  0  0  0  0  0  0  0  0  0
    1.7516    1.7617   -1.5883 H   0  0  0  0  0  0  0  0  0  0  0  0
    1.3895    0.0638   -1.8688 H   0  0  0  0  0  0  0  0  0  0  0  0
   -0.0027    3.2261    0.0154 H   0  0  0  0  0  0  0  0  0  0  0  0
   -2.3178    2.7172    0.8046 H   0  0  0  0  0  0  0  0  0  0  0  0
   -0.2046   -1.8444   -1.1056 H   0  0  0  0  0  0  0  0  0  0  0  0
   -4.0831    0.5261    0.9806 H   0  0  0  0  0  0  0  0  0  0  0  0
   -2.2886   -3.0675   -0.5741 H   0  0  0  0  0  0  0  0  0  0  0  0
   -4.2071   -1.9047    0.4550 H   0  0  0  0  0  0  0  0  0  0  0  0
    3.7128    0.8399    1.3102 H   0  0  0  0  0  0  0  0  0  0  0  0
    3.6610   -2.4767   -0.2372 H   0  0  0  0  0  0  0  0  0  0  0  0
  1 15  1  0  0  0  0
  1 25  1  0  0  0  0
  2 15  2  0  0  0  0
  3  7  1  0  0  0  0
  3  9  1  0  0  0  0
  3 19  1  0  0  0  0
  4 12  2  0  0  0  0
  4 24  1  0  0  0  0
  5  6  1  0  0  0  0
  5  8  1  0  0  0  0
  5  9  2  0  0  0  0
  6  7  1  0  0  0  0
  6 10  2  0  0  0  0
  7 11  2  0  0  0  0
  8 12  1  0  0  0  0
  8 16  1  0  0  0  0
  8 17  1  0  0  0  0
  9 18  1  0  0  0  0
 10 13  1  0  0  0  0
 10 20  1  0  0  0  0
 11 14  1  0  0  0  0
 11 21  1  0  0  0  0
 12 15  1  0  0  0  0
 13 14  2  0  0  0  0
 13 22  1  0  0  0  0
 14 23  1  0  0  0  0
M  END
> <PUBCHEM_COMPOUND_CID>
5599

> <PUBCHEM_CONFORMER_RMSD>
0.6

> <PUBCHEM_CONFORMER_DIVERSEORDER>
1
8
38
16
37
25
28
34
33
40
20
26
36
39
15
35
5
17
31
23
32
29
22
6
21
24
30
27
11
7
2
14
12
19
10
3
13
4
18
9

> <PUBCHEM_MMFF94_PARTIAL_CHARGES>
22
1 -0.65
10 -0.15
11 -0.15
12 0.39
13 -0.15
14 -0.15
15 0.72
18 0.15
19 0.27
2 -0.57
20 0.15
21 0.15
22 0.15
23 0.15
24 0.4
25 0.5
3 0.03
4 -0.85
5 -0.18
7 -0.15
8 0.24
9 -0.3

> <PUBCHEM_EFFECTIVE_ROTOR_COUNT>
3

> <PUBCHEM_PHARMACOPHORE_FEATURES>
9
1 1 acceptor
1 2 acceptor
1 3 cation
1 3 donor
1 4 acceptor
1 4 donor
3 1 2 15 anion
5 3 5 6 7 9 rings
6 6 7 10 11 13 14 rings

> <PUBCHEM_HEAVY_ATOM_COUNT>
15

> <PUBCHEM_ATOM_DEF_STEREO_COUNT>
0

> <PUBCHEM_ATOM_UDEF_STEREO_COUNT>
0

> <PUBCHEM_BOND_DEF_STEREO_COUNT>
0

> <PUBCHEM_BOND_UDEF_STEREO_COUNT>
0

> <PUBCHEM_ISOTOPIC_ATOM_COUNT>
0

> <PUBCHEM_COMPONENT_COUNT>
1

> <PUBCHEM_CACTVS_TAUTO_COUNT>
4

> <PUBCHEM_CONFORMER_ID>
000015DF00000001

> <PUBCHEM_MMFF94_ENERGY>
26.9896

> <PUBCHEM_FEATURE_SELFOVERLAP>
45.814

> <PUBCHEM_SHAPE_FINGERPRINT>
10618630 7 18342176643868807982
12251169 10 18334015016595768640
12382932 28 18336831879196654082
13296908 3 18413390929652140334
14251711 518 18343031011711930186
15001771 113 18342454846148900500
15076042 46 18262236732602119245
15375462 189 18269549442941777323
15536298 74 18408321069063117258
16752209 62 18339366387038289981
16945 1 18194689399675171485
17804303 29 18190451843513102430
19422 9 18199456831065407710
20361792 2 17060338543646055452
20442098 301 18408046212425450342
20510252 161 18114459058631078473
20871998 184 18259986002309027231
22445834 79 18271243936225687290
23388829 49 18265336114341987125
23463225 33 18411412895617953303
23552423 10 17907855103149524421
23559900 14 18334861627891393428
2748010 2 18410578413278674869
34934 24 18263648368346457429
6338986 31 18044390322377433815
7364860 26 18336260129282849028

> <PUBCHEM_SHAPE_MULTIPOLES>
286.99
5.46
2.29
0.89
1.29
0.21
-0.02
-2.07
0.87
-0.18
0.07
0.22
-0.07
-0.32

> <PUBCHEM_SHAPE_SELFOVERLAP>
623.376

> <PUBCHEM_SHAPE_VOLUME>
157.2

> <PUBCHEM_COORDINATE_TYPE>
2
5
10

$$$$

