9742
  -OEChem-06261204013D

 14 14  0     0  0  0  0  0  0999 V2000
   -2.3578    1.0617   -0.0002 F   0  0  0  0  0  0  0  0  0  0  0  0
    2.4397    1.0145   -0.0002 N   0  0  0  0  0  0  0  0  0  0  0  0
    1.2062    0.3304    0.0002 C   0  0  0  0  0  0  0  0  0  0  0  0
    0.0104    1.0486    0.0002 C   0  0  0  0  0  0  0  0  0  0  0  0
    1.1822   -1.0642    0.0000 C   0  0  0  0  0  0  0  0  0  0  0  0
   -1.2094    0.3721    0.0000 C   0  0  0  0  0  0  0  0  0  0  0  0
   -0.0377   -1.7406    0.0000 C   0  0  0  0  0  0  0  0  0  0  0  0
   -1.2335   -1.0225    0.0000 C   0  0  0  0  0  0  0  0  0  0  0  0
    0.0155    2.1355    0.0002 H   0  0  0  0  0  0  0  0  0  0  0  0
    2.1071   -1.6353   -0.0002 H   0  0  0  0  0  0  0  0  0  0  0  0
   -0.0566   -2.8265   -0.0001 H   0  0  0  0  0  0  0  0  0  0  0  0
   -2.1834   -1.5489    0.0000 H   0  0  0  0  0  0  0  0  0  0  0  0
    3.3070    0.4944    0.0003 H   0  0  0  0  0  0  0  0  0  0  0  0
    2.4577    2.0257    0.0005 H   0  0  0  0  0  0  0  0  0  0  0  0
  1  6  1  0  0  0  0
  2  3  1  0  0  0  0
  2 13  1  0  0  0  0
  2 14  1  0  0  0  0
  3  4  2  0  0  0  0
  3  5  1  0  0  0  0
  4  6  1  0  0  0  0
  4  9  1  0  0  0  0
  5  7  2  0  0  0  0
  5 10  1  0  0  0  0
  6  8  2  0  0  0  0
  7  8  1  0  0  0  0
  7 11  1  0  0  0  0
  8 12  1  0  0  0  0
M  END
> <PUBCHEM_COMPOUND_CID>
9742

> <PUBCHEM_CONFORMER_RMSD>
0.4

> <PUBCHEM_CONFORMER_DIVERSEORDER>
1

> <PUBCHEM_MMFF94_PARTIAL_CHARGES>
14
1 -0.19
10 0.15
11 0.15
12 0.15
13 0.4
14 0.4
2 -0.9
3 0.1
4 -0.15
5 -0.15
6 0.19
7 -0.15
8 -0.15
9 0.15

> <PUBCHEM_EFFECTIVE_ROTOR_COUNT>
0

> <PUBCHEM_PHARMACOPHORE_FEATURES>
3
1 2 cation
1 2 donor
6 3 4 5 6 7 8 rings

> <PUBCHEM_HEAVY_ATOM_COUNT>
8

> <PUBCHEM_ATOM_DEF_STEREO_COUNT>
0

> <PUBCHEM_ATOM_UDEF_STEREO_COUNT>
0

> <PUBCHEM_BOND_DEF_STEREO_COUNT>
0

> <PUBCHEM_BOND_UDEF_STEREO_COUNT>
0

> <PUBCHEM_ISOTOPIC_ATOM_COUNT>
0

> <PUBCHEM_COMPONENT_COUNT>
1

> <PUBCHEM_CACTVS_TAUTO_COUNT>
1

> <PUBCHEM_CONFORMER_ID>
0000260E00000001

> <PUBCHEM_MMFF94_ENERGY>
26.1306

> <PUBCHEM_FEATURE_SELFOVERLAP>
15.223

> <PUBCHEM_SHAPE_FINGERPRINT>
16714656 1 18122339078020316694
18185500 45 17329427762219249451
20096714 4 18410574032433157579
21040471 1 18410856551150114240
23552423 10 18272368621099955110
241688 4 16824179126640681130
29004967 10 17981598587498673251

> <PUBCHEM_SHAPE_MULTIPOLES>
152.38
2.48
1.67
0.59
0.3
0.44
0
-0.97
0
-0.13
0
0.01
0.03
0

> <PUBCHEM_SHAPE_SELFOVERLAP>
317.056

> <PUBCHEM_SHAPE_VOLUME>
87.2

> <PUBCHEM_COORDINATE_TYPE>
2
5
10

$$$$

