3785
  -OEChem-06251223402D

 36 38  0     0  0  0  0  0  0999 V2000
    2.0520   -0.7754    0.0000 O   0  0  0  0  0  0  0  0  0  0  0  0
    5.5161   -0.7754    0.0000 O   0  0  0  0  0  0  0  0  0  0  0  0
    6.3821    1.7246    0.0000 O   0  0  0  0  0  0  0  0  0  0  0  0
    6.3821    3.7246    0.0000 O   0  0  0  0  0  0  0  0  0  0  0  0
    3.7841   -0.7754    0.0000 N   0  0  0  0  0  0  0  0  0  0  0  0
    5.5161    3.2246    0.0000 N   0  0  0  0  0  0  0  0  0  0  0  0
    3.7841   -2.7754    0.0000 C   0  0  0  0  0  0  0  0  0  0  0  0
    3.7841    0.2246    0.0000 C   0  0  0  0  0  0  0  0  0  0  0  0
    4.6501   -2.2754    0.0000 C   0  0  0  0  0  0  0  0  0  0  0  0
    2.9180   -2.2754    0.0000 C   0  0  0  0  0  0  0  0  0  0  0  0
    4.6501    0.7246    0.0000 C   0  0  0  0  0  0  0  0  0  0  0  0
    4.6501   -1.2754    0.0000 C   0  0  0  0  0  0  0  0  0  0  0  0
    2.9180   -1.2754    0.0000 C   0  0  0  0  0  0  0  0  0  0  0  0
    3.8001   -3.8169    0.0000 C   0  0  0  0  0  0  0  0  0  0  0  0
    4.6501    1.7246    0.0000 C   0  0  0  0  0  0  0  0  0  0  0  0
    5.5601   -2.7822    0.0000 C   0  0  0  0  0  0  0  0  0  0  0  0
    2.0080   -2.7822    0.0000 C   0  0  0  0  0  0  0  0  0  0  0  0
    2.9021   -4.3446    0.0000 C   0  0  0  0  0  0  0  0  0  0  0  0
    4.6660   -4.3446    0.0000 C   0  0  0  0  0  0  0  0  0  0  0  0
    5.5681   -3.8238    0.0000 C   0  0  0  0  0  0  0  0  0  0  0  0
    2.0000   -3.8238    0.0000 C   0  0  0  0  0  0  0  0  0  0  0  0
    5.5161    2.2246    0.0000 C   0  0  0  0  0  0  0  0  0  0  0  0
    3.5720    0.8072    0.0000 H   0  0  0  0  0  0  0  0  0  0  0  0
    3.1735    0.1170    0.0000 H   0  0  0  0  0  0  0  0  0  0  0  0
    4.8621    0.1420    0.0000 H   0  0  0  0  0  0  0  0  0  0  0  0
    5.2607    0.8323    0.0000 H   0  0  0  0  0  0  0  0  0  0  0  0
    4.4380    2.3072    0.0000 H   0  0  0  0  0  0  0  0  0  0  0  0
    4.0395    1.6170    0.0000 H   0  0  0  0  0  0  0  0  0  0  0  0
    1.4747   -2.4660    0.0000 H   0  0  0  0  0  0  0  0  0  0  0  0
    6.0934   -2.4660    0.0000 H   0  0  0  0  0  0  0  0  0  0  0  0
    2.9045   -4.9646    0.0000 H   0  0  0  0  0  0  0  0  0  0  0  0
    4.6587   -4.9646    0.0000 H   0  0  0  0  0  0  0  0  0  0  0  0
    1.4619   -4.1317    0.0000 H   0  0  0  0  0  0  0  0  0  0  0  0
    6.1062   -4.1317    0.0000 H   0  0  0  0  0  0  0  0  0  0  0  0
    4.9792    3.5346    0.0000 H   0  0  0  0  0  0  0  0  0  0  0  0
    6.3821    4.3446    0.0000 H   0  0  0  0  0  0  0  0  0  0  0  0
  1 13  2  0  0  0  0
  2 12  2  0  0  0  0
  3 22  2  0  0  0  0
  4  6  1  0  0  0  0
  4 36  1  0  0  0  0
  5  8  1  0  0  0  0
  5 12  1  0  0  0  0
  5 13  1  0  0  0  0
  6 22  1  0  0  0  0
  6 35  1  0  0  0  0
  7  9  1  0  0  0  0
  7 10  1  0  0  0  0
  7 14  2  0  0  0  0
  8 11  1  0  0  0  0
  8 23  1  0  0  0  0
  8 24  1  0  0  0  0
  9 12  1  0  0  0  0
  9 16  2  0  0  0  0
 10 13  1  0  0  0  0
 10 17  2  0  0  0  0
 11 15  1  0  0  0  0
 11 25  1  0  0  0  0
 11 26  1  0  0  0  0
 14 18  1  0  0  0  0
 14 19  1  0  0  0  0
 15 22  1  0  0  0  0
 15 27  1  0  0  0  0
 15 28  1  0  0  0  0
 16 20  1  0  0  0  0
 16 30  1  0  0  0  0
 17 21  1  0  0  0  0
 17 29  1  0  0  0  0
 18 21  2  0  0  0  0
 18 31  1  0  0  0  0
 19 20  2  0  0  0  0
 19 32  1  0  0  0  0
 20 34  1  0  0  0  0
 21 33  1  0  0  0  0
M  END
> <PUBCHEM_COMPOUND_CID>
3785

> <PUBCHEM_COMPOUND_CANONICALIZED>
1

> <PUBCHEM_CACTVS_COMPLEXITY>
449

> <PUBCHEM_CACTVS_HBOND_ACCEPTOR>
4

> <PUBCHEM_CACTVS_HBOND_DONOR>
2

> <PUBCHEM_CACTVS_ROTATABLE_BOND>
4

> <PUBCHEM_CACTVS_SUBSKEYS>
AAADccB7OAAAAAAAAAAAAAAAAAAAAAAAAAA8YIAAAAAAAADxUAAAHgAUCAAADADBmAQwAMNQAACIAiFSEACCAAAkAAAoiAEIBMgIIDKAlRGEIQhgliCIiYcci8COgAACAAAQAAAAAAQAACAAAAAAAAAAAA==

> <PUBCHEM_IUPAC_OPENEYE_NAME>
4-(1,3-dioxobenzo[de]isoquinolin-2-yl)butanehydroxamic acid

> <PUBCHEM_IUPAC_CAS_NAME>
4-(1,3-dioxo-2-benzo[de]isoquinolinyl)-N-hydroxybutanamide

> <PUBCHEM_IUPAC_NAME>
4-(1,3-dioxobenzo[de]isoquinolin-2-yl)-N-hydroxybutanamide

> <PUBCHEM_IUPAC_SYSTEMATIC_NAME>
4-[1,3-bis(oxidanylidene)benzo[de]isoquinolin-2-yl]-N-oxidanyl-butanamide

> <PUBCHEM_IUPAC_TRADITIONAL_NAME>
4-(1,3-diketobenzo[de]isoquinolin-2-yl)butanehydroxamic acid

> <PUBCHEM_IUPAC_INCHI>
InChI=1S/C16H14N2O4/c19-13(17-22)8-3-9-18-15(20)11-6-1-4-10-5-2-7-12(14(10)11)16(18)21/h1-2,4-7,22H,3,8-9H2,(H,17,19)

> <PUBCHEM_IUPAC_INCHIKEY>
GBPSCCPAXYTNMB-UHFFFAOYSA-N

> <PUBCHEM_XLOGP3_AA>
1.3

> <PUBCHEM_EXACT_MASS>
298.095357

> <PUBCHEM_MOLECULAR_FORMULA>
C16H14N2O4

> <PUBCHEM_MOLECULAR_WEIGHT>
298.29336

> <PUBCHEM_OPENEYE_CAN_SMILES>
C1=CC2=C3C(=C1)C(=O)N(C(=O)C3=CC=C2)CCCC(=O)NO

> <PUBCHEM_OPENEYE_ISO_SMILES>
C1=CC2=C3C(=C1)C(=O)N(C(=O)C3=CC=C2)CCCC(=O)NO

> <PUBCHEM_CACTVS_TPSA>
86.7

> <PUBCHEM_MONOISOTOPIC_WEIGHT>
298.095357

> <PUBCHEM_TOTAL_CHARGE>
0

> <PUBCHEM_HEAVY_ATOM_COUNT>
22

> <PUBCHEM_ATOM_DEF_STEREO_COUNT>
0

> <PUBCHEM_ATOM_UDEF_STEREO_COUNT>
0

> <PUBCHEM_BOND_DEF_STEREO_COUNT>
0

> <PUBCHEM_BOND_UDEF_STEREO_COUNT>
0

> <PUBCHEM_ISOTOPIC_ATOM_COUNT>
0

> <PUBCHEM_COMPONENT_COUNT>
1

> <PUBCHEM_CACTVS_TAUTO_COUNT>
4

> <PUBCHEM_COORDINATE_TYPE>
1
5
255

> <PUBCHEM_BONDANNOTATIONS>
10  17  8
14  18  8
14  19  8
16  20  8
17  21  8
18  21  8
19  20  8
7  10  8
7  14  8
7  9  8
9  16  8

$$$$

