14188
  -OEChem-06241222423D

 40 42  0     0  0  0  0  0  0999 V2000
    0.3507   -0.1475    1.9931 O   0  0  0  0  0  0  0  0  0  0  0  0
    2.2786    0.0759   -2.1930 O   0  0  0  0  0  0  0  0  0  0  0  0
    3.9963   -0.0008   -0.1573 O   0  0  0  0  0  0  0  0  0  0  0  0
    3.1103   -0.1060    1.9504 O   0  0  0  0  0  0  0  0  0  0  0  0
    0.0824    0.0471   -1.4542 N   0  0  0  0  0  0  0  0  0  0  0  0
    1.7015   -0.0225    0.0916 N   0  0  0  0  0  0  0  0  0  0  0  0
   -0.6857    0.0052   -0.2193 C   0  0  0  0  0  0  0  0  0  0  0  0
   -1.5144    1.2915   -0.1348 C   0  0  0  0  0  0  0  0  0  0  0  0
   -1.5269   -1.2690   -0.0693 C   0  0  0  0  0  0  0  0  0  0  0  0
    0.4930   -0.0618    0.7767 C   0  0  0  0  0  0  0  0  0  0  0  0
    1.4630    0.0384   -1.2802 C   0  0  0  0  0  0  0  0  0  0  0  0
   -2.5402    1.5264   -1.0533 C   0  0  0  0  0  0  0  0  0  0  0  0
   -2.2640   -1.4896    1.0966 C   0  0  0  0  0  0  0  0  0  0  0  0
   -1.2475    2.2338    0.8612 C   0  0  0  0  0  0  0  0  0  0  0  0
   -1.5594   -2.2132   -1.0983 C   0  0  0  0  0  0  0  0  0  0  0  0
    2.9562   -0.0475    0.7321 C   0  0  0  0  0  0  0  0  0  0  0  0
   -3.2947    2.6971   -0.9765 C   0  0  0  0  0  0  0  0  0  0  0  0
   -3.0291   -2.6479    1.2329 C   0  0  0  0  0  0  0  0  0  0  0  0
   -2.0021    3.4045    0.9380 C   0  0  0  0  0  0  0  0  0  0  0  0
   -2.3247   -3.3715   -0.9619 C   0  0  0  0  0  0  0  0  0  0  0  0
   -3.0258    3.6360    0.0192 C   0  0  0  0  0  0  0  0  0  0  0  0
   -3.0595   -3.5887    0.2037 C   0  0  0  0  0  0  0  0  0  0  0  0
    5.3110   -0.0237    0.4098 C   0  0  0  0  0  0  0  0  0  0  0  0
    6.3310    0.0339   -0.7073 C   0  0  0  0  0  0  0  0  0  0  0  0
   -0.3442    0.0984   -2.3748 H   0  0  0  0  0  0  0  0  0  0  0  0
   -2.7634    0.8074   -1.8372 H   0  0  0  0  0  0  0  0  0  0  0  0
   -2.2609   -0.7669    1.9080 H   0  0  0  0  0  0  0  0  0  0  0  0
   -0.4569    2.1113    1.5922 H   0  0  0  0  0  0  0  0  0  0  0  0
   -1.0042   -2.0852   -2.0222 H   0  0  0  0  0  0  0  0  0  0  0  0
   -4.0913    2.8778   -1.6922 H   0  0  0  0  0  0  0  0  0  0  0  0
   -3.6026   -2.8164    2.1396 H   0  0  0  0  0  0  0  0  0  0  0  0
   -1.7914    4.1376    1.7113 H   0  0  0  0  0  0  0  0  0  0  0  0
   -2.3491   -4.1044   -1.7630 H   0  0  0  0  0  0  0  0  0  0  0  0
   -3.6126    4.5479    0.0785 H   0  0  0  0  0  0  0  0  0  0  0  0
   -3.6557   -4.4903    0.3096 H   0  0  0  0  0  0  0  0  0  0  0  0
    5.4378    0.8403    1.0716 H   0  0  0  0  0  0  0  0  0  0  0  0
    5.4441   -0.9466    0.9852 H   0  0  0  0  0  0  0  0  0  0  0  0
    7.3492    0.0182   -0.3088 H   0  0  0  0  0  0  0  0  0  0  0  0
    6.2045   -0.8141   -1.3884 H   0  0  0  0  0  0  0  0  0  0  0  0
    6.1984    0.9427   -1.3036 H   0  0  0  0  0  0  0  0  0  0  0  0
  1 10  2  0  0  0  0
  2 11  2  0  0  0  0
  3 16  1  0  0  0  0
  3 23  1  0  0  0  0
  4 16  2  0  0  0  0
  5  7  1  0  0  0  0
  5 11  1  0  0  0  0
  5 25  1  0  0  0  0
  6 10  1  0  0  0  0
  6 11  1  0  0  0  0
  6 16  1  0  0  0  0
  7  8  1  0  0  0  0
  7  9  1  0  0  0  0
  7 10  1  0  0  0  0
  8 12  2  0  0  0  0
  8 14  1  0  0  0  0
  9 13  2  0  0  0  0
  9 15  1  0  0  0  0
 12 17  1  0  0  0  0
 12 26  1  0  0  0  0
 13 18  1  0  0  0  0
 13 27  1  0  0  0  0
 14 19  2  0  0  0  0
 14 28  1  0  0  0  0
 15 20  2  0  0  0  0
 15 29  1  0  0  0  0
 17 21  2  0  0  0  0
 17 30  1  0  0  0  0
 18 22  2  0  0  0  0
 18 31  1  0  0  0  0
 19 21  1  0  0  0  0
 19 32  1  0  0  0  0
 20 22  1  0  0  0  0
 20 33  1  0  0  0  0
 21 34  1  0  0  0  0
 22 35  1  0  0  0  0
 23 24  1  0  0  0  0
 23 36  1  0  0  0  0
 23 37  1  0  0  0  0
 24 38  1  0  0  0  0
 24 39  1  0  0  0  0
 24 40  1  0  0  0  0
M  END
> <PUBCHEM_COMPOUND_CID>
14188

> <PUBCHEM_CONFORMER_RMSD>
0.8

> <PUBCHEM_CONFORMER_DIVERSEORDER>
1
3
7
4
6
5
10
8
11
2
9

> <PUBCHEM_MMFF94_PARTIAL_CHARGES>
34
1 -0.57
10 0.57
11 0.69
12 -0.15
13 -0.15
14 -0.15
15 -0.15
16 0.78
17 -0.15
18 -0.15
19 -0.15
2 -0.57
20 -0.15
21 -0.15
22 -0.15
23 0.28
25 0.37
26 0.15
27 0.15
28 0.15
29 0.15
3 -0.43
30 0.15
31 0.15
32 0.15
33 0.15
34 0.15
35 0.15
4 -0.57
5 -0.73
6 -0.18
7 0.65
8 -0.14
9 -0.14

> <PUBCHEM_EFFECTIVE_ROTOR_COUNT>
5.6

> <PUBCHEM_PHARMACOPHORE_FEATURES>
7
1 1 acceptor
1 2 acceptor
1 4 acceptor
1 5 donor
5 5 6 7 10 11 rings
6 8 12 14 17 19 21 rings
6 9 13 15 18 20 22 rings

> <PUBCHEM_HEAVY_ATOM_COUNT>
24

> <PUBCHEM_ATOM_DEF_STEREO_COUNT>
0

> <PUBCHEM_ATOM_UDEF_STEREO_COUNT>
0

> <PUBCHEM_BOND_DEF_STEREO_COUNT>
0

> <PUBCHEM_BOND_UDEF_STEREO_COUNT>
0

> <PUBCHEM_ISOTOPIC_ATOM_COUNT>
0

> <PUBCHEM_COMPONENT_COUNT>
1

> <PUBCHEM_CACTVS_TAUTO_COUNT>
2

> <PUBCHEM_CONFORMER_ID>
0000376C00000001

> <PUBCHEM_MMFF94_ENERGY>
63.7636

> <PUBCHEM_FEATURE_SELFOVERLAP>
35.525

> <PUBCHEM_SHAPE_FINGERPRINT>
11056379 131 18410566259101742110
11101153 10 18055626215044508292
11578080 2 18118098459630799478
121448 382 18190186865748686909
12553582 1 18123179104936274743
12643181 29 18121492725621469614
12714826 92 18260546684662355202
12788726 201 18127671778081961007
13134695 92 17835805192850482039
13140716 1 18266733585373808185
13583140 156 17967825946568480730
13681431 1 17617367395255622503
13955234 65 17185298285404924433
14617773 55 17774994648864893421
14713325 29 18409724075701355434
15163728 17 17834677475793321076
16945 1 18271230686652336677
17980427 26 12431051486988451725
1813 80 17974554806758079847
20567600 347 18048888686756031757
20600515 1 17753311089891429767
21426921 1 18411418393276253798
22182313 1 17676752258900684894
23419403 2 17316221150628268803
23493267 7 18187369878287340376
23557571 272 18334012783107403316
23598288 3 18271793606203350967
283562 15 18200316519993162666
3759504 43 18265055901880186380
4409770 3 18409732863599945575
5486654 2 18338526339107587685
6442390 28 18045759438040493473
6786 2 18046900765195238387
7364860 26 10226901273710223429
81228 2 18410285896500085155
90316 7 18263636273818927939
9981440 41 17750813214342495166

> <PUBCHEM_SHAPE_MULTIPOLES>
460.47
8.28
4.22
1.61
17.93
0.21
0.01
-0.04
-0.4
-8.64
0.13
0.34
-0.14
0.35

> <PUBCHEM_SHAPE_SELFOVERLAP>
1001.866

> <PUBCHEM_SHAPE_VOLUME>
249.8

> <PUBCHEM_COORDINATE_TYPE>
2
5
10

$$$$

