9173
  -OEChem-06261203283D

 29 32  0     0  0  0  0  0  0999 V2000
   -3.7540   -1.1391   -0.0005 N   0  0  0  0  0  0  0  0  0  0  0  0
    0.4252   -0.5576    0.0003 C   0  0  0  0  0  0  0  0  0  0  0  0
   -0.4375    0.5729    0.0002 C   0  0  0  0  0  0  0  0  0  0  0  0
    1.8603   -0.3910    0.0003 C   0  0  0  0  0  0  0  0  0  0  0  0
   -1.8721    0.3974    0.0001 C   0  0  0  0  0  0  0  0  0  0  0  0
    2.4045    0.9155    0.0000 C   0  0  0  0  0  0  0  0  0  0  0  0
    0.1689    1.8456   -0.0004 C   0  0  0  0  0  0  0  0  0  0  0  0
   -2.4294   -0.8982   -0.0003 C   0  0  0  0  0  0  0  0  0  0  0  0
   -0.1900   -1.8238    0.0001 C   0  0  0  0  0  0  0  0  0  0  0  0
    1.5518    2.0149   -0.0004 C   0  0  0  0  0  0  0  0  0  0  0  0
   -1.5760   -1.9816   -0.0003 C   0  0  0  0  0  0  0  0  0  0  0  0
    2.7954   -1.4595    0.0003 C   0  0  0  0  0  0  0  0  0  0  0  0
   -2.8142    1.4555    0.0004 C   0  0  0  0  0  0  0  0  0  0  0  0
    3.7956    1.1202   -0.0001 C   0  0  0  0  0  0  0  0  0  0  0  0
    4.1772   -1.2463    0.0001 C   0  0  0  0  0  0  0  0  0  0  0  0
    4.6779    0.0453   -0.0002 C   0  0  0  0  0  0  0  0  0  0  0  0
   -4.1839    1.2197    0.0005 C   0  0  0  0  0  0  0  0  0  0  0  0
   -4.5996   -0.0898   -0.0002 C   0  0  0  0  0  0  0  0  0  0  0  0
   -0.4257    2.7554   -0.0007 H   0  0  0  0  0  0  0  0  0  0  0  0
    0.3962   -2.7391    0.0001 H   0  0  0  0  0  0  0  0  0  0  0  0
    1.9491    3.0283   -0.0008 H   0  0  0  0  0  0  0  0  0  0  0  0
   -1.9802   -2.9928   -0.0005 H   0  0  0  0  0  0  0  0  0  0  0  0
    2.4663   -2.4954    0.0005 H   0  0  0  0  0  0  0  0  0  0  0  0
   -2.4974    2.4948    0.0008 H   0  0  0  0  0  0  0  0  0  0  0  0
    4.2065    2.1283   -0.0004 H   0  0  0  0  0  0  0  0  0  0  0  0
    4.8560   -2.0942    0.0002 H   0  0  0  0  0  0  0  0  0  0  0  0
    5.7496    0.2178   -0.0004 H   0  0  0  0  0  0  0  0  0  0  0  0
   -4.8940    2.0381    0.0008 H   0  0  0  0  0  0  0  0  0  0  0  0
   -5.6541   -0.3433   -0.0002 H   0  0  0  0  0  0  0  0  0  0  0  0
  1  8  1  0  0  0  0
  1 18  2  0  0  0  0
  2  3  2  0  0  0  0
  2  4  1  0  0  0  0
  2  9  1  0  0  0  0
  3  5  1  0  0  0  0
  3  7  1  0  0  0  0
  4  6  1  0  0  0  0
  4 12  2  0  0  0  0
  5  8  2  0  0  0  0
  5 13  1  0  0  0  0
  6 10  1  0  0  0  0
  6 14  2  0  0  0  0
  7 10  2  0  0  0  0
  7 19  1  0  0  0  0
  8 11  1  0  0  0  0
  9 11  2  0  0  0  0
  9 20  1  0  0  0  0
 10 21  1  0  0  0  0
 11 22  1  0  0  0  0
 12 15  1  0  0  0  0
 12 23  1  0  0  0  0
 13 17  2  0  0  0  0
 13 24  1  0  0  0  0
 14 16  1  0  0  0  0
 14 25  1  0  0  0  0
 15 16  2  0  0  0  0
 15 26  1  0  0  0  0
 16 27  1  0  0  0  0
 17 18  1  0  0  0  0
 17 28  1  0  0  0  0
 18 29  1  0  0  0  0
M  END
> <PUBCHEM_COMPOUND_CID>
9173

> <PUBCHEM_CONFORMER_RMSD>
0.4

> <PUBCHEM_CONFORMER_DIVERSEORDER>
1

> <PUBCHEM_MMFF94_PARTIAL_CHARGES>
24
1 -0.62
10 -0.15
11 -0.15
12 -0.15
13 -0.15
14 -0.15
15 -0.15
16 -0.15
17 -0.15
18 0.16
19 0.15
20 0.15
21 0.15
22 0.15
23 0.15
24 0.15
25 0.15
26 0.15
27 0.15
28 0.15
29 0.15
7 -0.15
8 0.31
9 -0.15

> <PUBCHEM_EFFECTIVE_ROTOR_COUNT>
0

> <PUBCHEM_PHARMACOPHORE_FEATURES>
5
1 1 acceptor
6 1 5 8 13 17 18 rings
6 2 3 4 6 7 10 rings
6 2 3 5 8 9 11 rings
6 4 6 12 14 15 16 rings

> <PUBCHEM_HEAVY_ATOM_COUNT>
18

> <PUBCHEM_ATOM_DEF_STEREO_COUNT>
0

> <PUBCHEM_ATOM_UDEF_STEREO_COUNT>
0

> <PUBCHEM_BOND_DEF_STEREO_COUNT>
0

> <PUBCHEM_BOND_UDEF_STEREO_COUNT>
0

> <PUBCHEM_ISOTOPIC_ATOM_COUNT>
0

> <PUBCHEM_COMPONENT_COUNT>
1

> <PUBCHEM_CACTVS_TAUTO_COUNT>
1

> <PUBCHEM_CONFORMER_ID>
000023D500000001

> <PUBCHEM_MMFF94_ENERGY>
67.2916

> <PUBCHEM_FEATURE_SELFOVERLAP>
25.446

> <PUBCHEM_SHAPE_FINGERPRINT>
10062212 137 18334301963329386871
10608611 8 18337675213263361936
10616163 171 18265049146023412326
10967382 1 18410575127686630886
11132069 177 18410016545862701240
11471102 20 18411141337525491764
11578080 2 16880486860950946747
12011746 2 18410856581119914196
12403259 226 18337678512315378817
12403814 3 17704075109528400261
13140716 1 18410573972271830880
13221675 6 18412827975409130346
13675066 3 18412262800673101912
13862211 1 18410862087305313282
14115302 16 18201991115062147198
14178342 30 17976560320620612018
14790565 3 18266168616406787505
14866123 147 17179672071224877586
15099037 51 18410856581267736943
15196674 1 18410856559650352068
15375358 24 18333732420632730254
15442244 35 18410293622755983960
15536298 74 18335139782641794648
16945 1 18122344575377936996
17804303 29 18409727344108092645
1813 80 17203610389260805204
18186145 218 18060425724083468399
18522853 276 18335421265886777560
19591789 44 18339926042403882210
200 152 17967537861304590653
20510252 161 18260828245369723881
20645477 70 18335138726043306630
21029758 11 18334298669031507049
21267235 1 18410846668657505290
21279426 13 18194683897790378276
21421861 104 17844537806303489410
21501502 16 18266740181868548900
221490 88 18269548338850378106
2334 1 18410573950796987524
23402539 116 18260838110824842863
23463225 33 18411981364562099860
23559900 14 18333734590039867584
2748010 2 18410573976566791428
3004659 81 18272365426156171854
335352 9 18338516459843562876
34934 24 18410017611410261946
350125 39 18410852166637780321
3545911 37 18409446977180014896
4214541 1 18410575102027778785
474 4 17273971338268200548
495365 180 17386019342617940056
5104073 3 18410855451543502928
69090 78 18407763624994142343
7364860 26 18263364685973113736
77779 3 18411135831303552132
7832392 63 18336832991851685478
8809292 202 18271522005261794179
9709674 26 18409442557696162390
9981440 41 17332527869587934568

> <PUBCHEM_SHAPE_MULTIPOLES>
365.45
8.65
2.12
0.61
0.17
0.01
0
-0.04
0
-0.02
0
-0.02
-0.01
0

> <PUBCHEM_SHAPE_SELFOVERLAP>
841.403

> <PUBCHEM_SHAPE_VOLUME>
183.8

> <PUBCHEM_COORDINATE_TYPE>
2
5
10

$$$$

