10300
  -OEChem-06261204263D

 20 20  0     0  0  0  0  0  0999 V2000
    2.9058    1.0209    0.0220 O   0  0  0  0  0  0  0  0  0  0  0  0
   -2.3607    1.6535   -0.3542 O   0  0  0  0  0  0  0  0  0  0  0  0
    1.5649    1.3081    0.0562 N   0  0  0  0  0  0  0  0  0  0  0  0
   -1.2458    1.6084    0.1655 N   0  0  0  0  0  0  0  0  0  0  0  0
    0.3639   -2.2317   -0.4350 C   0  0  0  0  0  0  0  0  0  0  0  0
   -0.9214   -2.1302    0.3680 C   0  0  0  0  0  0  0  0  0  0  0  0
    1.3184   -1.0996   -0.0614 C   0  0  0  0  0  0  0  0  0  0  0  0
   -1.6139   -0.7954    0.1011 C   0  0  0  0  0  0  0  0  0  0  0  0
    0.6680    0.2683    0.0395 C   0  0  0  0  0  0  0  0  0  0  0  0
   -0.6793    0.3975    0.0982 C   0  0  0  0  0  0  0  0  0  0  0  0
    0.1337   -2.1851   -1.5070 H   0  0  0  0  0  0  0  0  0  0  0  0
    0.8475   -3.1982   -0.2540 H   0  0  0  0  0  0  0  0  0  0  0  0
   -0.6961   -2.2237    1.4380 H   0  0  0  0  0  0  0  0  0  0  0  0
   -1.5951   -2.9551    0.1105 H   0  0  0  0  0  0  0  0  0  0  0  0
    2.1127   -1.0972   -0.8185 H   0  0  0  0  0  0  0  0  0  0  0  0
    1.7888   -1.3327    0.9030 H   0  0  0  0  0  0  0  0  0  0  0  0
   -2.3979   -0.6694    0.8596 H   0  0  0  0  0  0  0  0  0  0  0  0
   -2.1155   -0.8554   -0.8745 H   0  0  0  0  0  0  0  0  0  0  0  0
    1.2770    2.2735    0.1506 H   0  0  0  0  0  0  0  0  0  0  0  0
    3.2144    1.5921   -0.7017 H   0  0  0  0  0  0  0  0  0  0  0  0
  1  3  1  0  0  0  0
  1 20  1  0  0  0  0
  2  4  2  0  0  0  0
  3  9  1  0  0  0  0
  3 19  1  0  0  0  0
  4 10  1  0  0  0  0
  5  6  1  0  0  0  0
  5  7  1  0  0  0  0
  5 11  1  0  0  0  0
  5 12  1  0  0  0  0
  6  8  1  0  0  0  0
  6 13  1  0  0  0  0
  6 14  1  0  0  0  0
  7  9  1  0  0  0  0
  7 15  1  0  0  0  0
  7 16  1  0  0  0  0
  8 10  1  0  0  0  0
  8 17  1  0  0  0  0
  8 18  1  0  0  0  0
  9 10  2  0  0  0  0
M  END
> <PUBCHEM_COMPOUND_CID>
10300

> <PUBCHEM_CONFORMER_RMSD>
0.6

> <PUBCHEM_CONFORMER_DIVERSEORDER>
1
4
3
2

> <PUBCHEM_MMFF94_PARTIAL_CHARGES>
10
1 -0.38
10 0.16
19 0.4
2 -0.16
20 0.4
3 -0.52
4 -0.13
7 0.14
8 0.14
9 -0.04

> <PUBCHEM_EFFECTIVE_ROTOR_COUNT>
2.8

> <PUBCHEM_PHARMACOPHORE_FEATURES>
2
1 1 anion
6 5 6 7 8 9 10 rings

> <PUBCHEM_HEAVY_ATOM_COUNT>
10

> <PUBCHEM_ATOM_DEF_STEREO_COUNT>
0

> <PUBCHEM_ATOM_UDEF_STEREO_COUNT>
0

> <PUBCHEM_BOND_DEF_STEREO_COUNT>
0

> <PUBCHEM_BOND_UDEF_STEREO_COUNT>
0

> <PUBCHEM_ISOTOPIC_ATOM_COUNT>
0

> <PUBCHEM_COMPONENT_COUNT>
1

> <PUBCHEM_CACTVS_TAUTO_COUNT>
1

> <PUBCHEM_CONFORMER_ID>
0000283C00000001

> <PUBCHEM_MMFF94_ENERGY>
14.401

> <PUBCHEM_FEATURE_SELFOVERLAP>
10.148

> <PUBCHEM_SHAPE_FINGERPRINT>
12423570 1 16101938968244367179
13380535 76 18410863195380144619
16945 1 18268148656401048762
18185500 45 17401766320138164994
193761 8 18410572924368914739
20871998 184 17973999557738743686
21040471 1 18411136952437839368
23552423 10 17977109277438629413
241688 4 16679782476494057050
2748010 2 18410848897428754598

> <PUBCHEM_SHAPE_MULTIPOLES>
184.09
2.74
2.51
0.63
1.38
0.53
0
-1.28
0.01
-0.85
0.15
-0.06
0.1
0.25

> <PUBCHEM_SHAPE_SELFOVERLAP>
369.414

> <PUBCHEM_SHAPE_VOLUME>
108.3

> <PUBCHEM_COORDINATE_TYPE>
2
5
10

$$$$

