13971
  -OEChem-06241222413D

 31 33  0     0  0  0  0  0  0999 V2000
    0.0031   -0.3341   -0.0014 O   0  0  0  0  0  0  0  0  0  0  0  0
    6.2806    2.4025   -0.0003 O   0  5  0  0  0  0  0  0  0  0  0  0
   -6.2843    2.4007    0.0006 O   0  5  0  0  0  0  0  0  0  0  0  0
    7.1952    0.4069    0.0024 O   0  0  0  0  0  0  0  0  0  0  0  0
   -7.1973    0.4044   -0.0002 O   0  0  0  0  0  0  0  0  0  0  0  0
    0.6954   -2.4614    0.0003 N   0  0  0  0  0  0  0  0  0  0  0  0
   -0.6870   -2.4621    0.0003 N   0  0  0  0  0  0  0  0  0  0  0  0
    6.1851    1.1513    0.0006 N   0  3  0  0  0  0  0  0  0  0  0  0
   -6.1877    1.1496    0.0003 N   0  3  0  0  0  0  0  0  0  0  0  0
    2.3579   -0.6019   -0.0012 C   0  0  0  0  0  0  0  0  0  0  0  0
   -2.3514   -0.6040    0.0004 C   0  0  0  0  0  0  0  0  0  0  0  0
    1.0465   -1.2023   -0.0009 C   0  0  0  0  0  0  0  0  0  0  0  0
   -1.0472   -1.1999   -0.0005 C   0  0  0  0  0  0  0  0  0  0  0  0
    2.4889    0.7866   -0.0020 C   0  0  0  0  0  0  0  0  0  0  0  0
   -2.4912    0.7879    0.0004 C   0  0  0  0  0  0  0  0  0  0  0  0
    3.4949   -1.4099    0.0002 C   0  0  0  0  0  0  0  0  0  0  0  0
   -3.4955   -1.4094    0.0004 C   0  0  0  0  0  0  0  0  0  0  0  0
    4.8943    0.5596    0.0002 C   0  0  0  0  0  0  0  0  0  0  0  0
   -4.8964    0.5590    0.0003 C   0  0  0  0  0  0  0  0  0  0  0  0
    3.7570    1.3675   -0.0014 C   0  0  0  0  0  0  0  0  0  0  0  0
   -3.7599    1.3677    0.0004 C   0  0  0  0  0  0  0  0  0  0  0  0
    4.7632   -0.8291    0.0008 C   0  0  0  0  0  0  0  0  0  0  0  0
   -4.7642   -0.8297    0.0003 C   0  0  0  0  0  0  0  0  0  0  0  0
    1.6265    1.4485   -0.0030 H   0  0  0  0  0  0  0  0  0  0  0  0
   -1.6296    1.4512    0.0003 H   0  0  0  0  0  0  0  0  0  0  0  0
    3.4158   -2.4944    0.0010 H   0  0  0  0  0  0  0  0  0  0  0  0
   -3.4167   -2.4942    0.0003 H   0  0  0  0  0  0  0  0  0  0  0  0
    3.8213    2.4527   -0.0020 H   0  0  0  0  0  0  0  0  0  0  0  0
   -3.8250    2.4529    0.0004 H   0  0  0  0  0  0  0  0  0  0  0  0
    5.6267   -1.4895    0.0020 H   0  0  0  0  0  0  0  0  0  0  0  0
   -5.6272   -1.4907    0.0003 H   0  0  0  0  0  0  0  0  0  0  0  0
  1 12  1  0  0  0  0
  1 13  1  0  0  0  0
  2  8  1  0  0  0  0
  3  9  1  0  0  0  0
  4  8  2  0  0  0  0
  5  9  2  0  0  0  0
  6  7  1  0  0  0  0
  6 12  2  0  0  0  0
  7 13  2  0  0  0  0
  8 18  1  0  0  0  0
  9 19  1  0  0  0  0
 10 12  1  0  0  0  0
 10 14  2  0  0  0  0
 10 16  1  0  0  0  0
 11 13  1  0  0  0  0
 11 15  2  0  0  0  0
 11 17  1  0  0  0  0
 14 20  1  0  0  0  0
 14 24  1  0  0  0  0
 15 21  1  0  0  0  0
 15 25  1  0  0  0  0
 16 22  2  0  0  0  0
 16 26  1  0  0  0  0
 17 23  2  0  0  0  0
 17 27  1  0  0  0  0
 18 20  2  0  0  0  0
 18 22  1  0  0  0  0
 19 21  2  0  0  0  0
 19 23  1  0  0  0  0
 20 28  1  0  0  0  0
 21 29  1  0  0  0  0
 22 30  1  0  0  0  0
 23 31  1  0  0  0  0
M  CHG  4   2  -1   3  -1   8   1   9   1
M  END
> <PUBCHEM_COMPOUND_CID>
13971

> <PUBCHEM_CONFORMER_RMSD>
0.6

> <PUBCHEM_CONFORMER_DIVERSEORDER>
1

> <PUBCHEM_MMFF94_PARTIAL_CHARGES>
31
1 -0.28
10 0.05
11 0.05
12 0.43
13 0.43
14 -0.15
15 -0.15
16 -0.15
17 -0.15
18 0.13
19 0.13
2 -0.52
20 -0.15
21 -0.15
22 -0.15
23 -0.15
24 0.15
25 0.15
26 0.15
27 0.15
28 0.15
29 0.15
3 -0.52
30 0.15
31 0.15
4 -0.52
5 -0.52
6 -0.34
7 -0.34
8 0.91
9 0.91

> <PUBCHEM_EFFECTIVE_ROTOR_COUNT>
4

> <PUBCHEM_PHARMACOPHORE_FEATURES>
9
1 2 acceptor
1 2 anion
1 3 acceptor
1 3 anion
1 4 acceptor
1 5 acceptor
5 1 6 7 12 13 rings
6 10 14 16 18 20 22 rings
6 11 15 17 19 21 23 rings

> <PUBCHEM_HEAVY_ATOM_COUNT>
23

> <PUBCHEM_ATOM_DEF_STEREO_COUNT>
0

> <PUBCHEM_ATOM_UDEF_STEREO_COUNT>
0

> <PUBCHEM_BOND_DEF_STEREO_COUNT>
0

> <PUBCHEM_BOND_UDEF_STEREO_COUNT>
0

> <PUBCHEM_ISOTOPIC_ATOM_COUNT>
0

> <PUBCHEM_COMPONENT_COUNT>
1

> <PUBCHEM_CACTVS_TAUTO_COUNT>
1

> <PUBCHEM_CONFORMER_ID>
0000369300000001

> <PUBCHEM_MMFF94_ENERGY>
61.6938

> <PUBCHEM_FEATURE_SELFOVERLAP>
45.833

> <PUBCHEM_SHAPE_FINGERPRINT>
10 15 18060135431628628497
10411042 1 17762056541714561935
10595046 47 18335143120253643151
12236239 1 18411421712948733810
12596602 18 17632297856564032248
12633257 1 15697993011825252298
12760667 363 9727635003641369341
12838862 33 18338535087106851265
13167372 99 18410575131981793232
13402501 40 18410857663446969301
13740256 8 9223229650209988999
13785724 45 17835244820036538498
14251764 18 18272936015938293930
14556957 393 15430302591086208384
14933364 13 18410853265399899523
15048467 5 18410575088958059205
15183329 4 18260259781321554002
15188451 53 15625649502415856291
15196674 1 18410855464423310982
15238133 3 18059848438267717780
15419008 145 18129394846764785216
15475509 35 15912495748242401218
15778101 99 18410291402490149883
18006028 8 10807935959693179727
18335252 98 18335978697730831219
19611394 137 17987221250056810123
20157964 124 18334855047827416214
20281389 69 18273497896313009221
20526848 3 18410853261105276524
20554085 129 17677065589961735418
21033648 29 18263090933389494512
21033650 10 14490458825208348891
21150785 3 17167584873855136029
21236236 1 18337110069204475831
21298829 104 18409163350889744177
21421861 104 17845952813792372530
22224240 67 17989488515773713243
23198884 109 16081082688891159875
23402539 116 18261116235801071614
23402655 69 18260551112863373126
23559900 14 18187370887135526984
2838139 119 18335988592433148012
2916195 48 18409450250261612178
293599 30 18410575076442578342
335352 9 18410008845893753078
3472631 163 18334573521342428612
34797466 226 17895186727537011399
351380 3 9223230736731239305
3545911 37 18410292514469714284
4073 2 18059851723649122138
4325135 7 18334861598248408079
4340502 62 16486975107256160042
465052 167 10735872889566356730
5104073 3 18131068255452502091
5385378 56 18272091642943778978
5969126 39 18191872211285506759
636775 72 18335987480343242760

> <PUBCHEM_SHAPE_MULTIPOLES>
424.06
18.09
2.24
0.58
0.05
0.06
0
-11.61
0.01
0
0
0
0.01
0

> <PUBCHEM_SHAPE_SELFOVERLAP>
940.378

> <PUBCHEM_SHAPE_VOLUME>
229.4

> <PUBCHEM_COORDINATE_TYPE>
2
5
10

$$$$

