51090921
  -OEChem-06241223002D

 37 38  0     1  0  0  0  0  0999 V2000
    2.0000   -4.1602    0.0000 F   0  0  0  0  0  0  0  0  0  0  0  0
    3.3660   -4.5262    0.0000 F   0  0  0  0  0  0  0  0  0  0  0  0
    2.3660   -2.7942    0.0000 F   0  0  0  0  0  0  0  0  0  0  0  0
    5.9954    1.8057    0.0000 O   0  0  0  0  0  0  0  0  0  0  0  0
    3.7320   -2.1602    0.0000 N   0  0  3  0  0  0  0  0  0  0  0  0
    4.4131    1.1012    0.0000 N   0  0  0  0  0  0  0  0  0  0  0  0
    3.5115    4.0262    0.0000 N   0  0  0  0  0  0  0  0  0  0  0  0
    4.4250    4.4330    0.0000 N   0  0  0  0  0  0  0  0  0  0  0  0
    4.2320   -0.6213    0.0000 C   0  0  3  0  0  0  0  0  0  0  0  0
    3.2320   -0.6213    0.0000 C   0  0  0  0  0  0  0  0  0  0  0  0
    4.5411   -1.5724    0.0000 C   0  0  0  0  0  0  0  0  0  0  0  0
    2.9230   -1.5724    0.0000 C   0  0  0  0  0  0  0  0  0  0  0  0
    4.8198    0.1877    0.0000 C   0  0  0  0  0  0  0  0  0  0  0  0
    3.7320   -3.1602    0.0000 C   0  0  0  0  0  0  0  0  0  0  0  0
    2.8660   -3.6602    0.0000 C   0  0  0  0  0  0  0  0  0  0  0  0
    5.0009    1.9102    0.0000 C   0  0  0  0  0  0  0  0  0  0  0  0
    4.5942    2.8238    0.0000 C   0  0  0  0  0  0  0  0  0  0  0  0
    3.6160    3.0317    0.0000 C   0  0  0  0  0  0  0  0  0  0  0  0
    5.0942    3.6898    0.0000 C   0  0  0  0  0  0  0  0  0  0  0  0
    2.6454    4.5262    0.0000 C   0  0  0  0  0  0  0  0  0  0  0  0
    4.8444   -0.7183    0.0000 H   0  0  0  0  0  0  0  0  0  0  0  0
    3.2969   -0.0047    0.0000 H   0  0  0  0  0  0  0  0  0  0  0  0
    2.6256   -0.4924    0.0000 H   0  0  0  0  0  0  0  0  0  0  0  0
    4.8511   -2.1093    0.0000 H   0  0  0  0  0  0  0  0  0  0  0  0
    5.1075   -1.3202    0.0000 H   0  0  0  0  0  0  0  0  0  0  0  0
    2.3566   -1.3202    0.0000 H   0  0  0  0  0  0  0  0  0  0  0  0
    2.6130   -2.1093    0.0000 H   0  0  0  0  0  0  0  0  0  0  0  0
    5.2505   -0.2583    0.0000 H   0  0  0  0  0  0  0  0  0  0  0  0
    5.3338    0.5344    0.0000 H   0  0  0  0  0  0  0  0  0  0  0  0
    3.9441   -3.7428    0.0000 H   0  0  0  0  0  0  0  0  0  0  0  0
    4.3426   -3.0525    0.0000 H   0  0  0  0  0  0  0  0  0  0  0  0
    3.7965    1.1660    0.0000 H   0  0  0  0  0  0  0  0  0  0  0  0
    3.1552    2.6168    0.0000 H   0  0  0  0  0  0  0  0  0  0  0  0
    5.7108    3.7546    0.0000 H   0  0  0  0  0  0  0  0  0  0  0  0
    2.9554    5.0632    0.0000 H   0  0  0  0  0  0  0  0  0  0  0  0
    2.1085    4.8362    0.0000 H   0  0  0  0  0  0  0  0  0  0  0  0
    2.3354    3.9893    0.0000 H   0  0  0  0  0  0  0  0  0  0  0  0
  1 15  1  0  0  0  0
  2 15  1  0  0  0  0
  3 15  1  0  0  0  0
  4 16  2  0  0  0  0
  5 11  1  0  0  0  0
  5 12  1  0  0  0  0
  5 14  1  0  0  0  0
  6 13  1  0  0  0  0
  6 16  1  0  0  0  0
  6 32  1  0  0  0  0
  7  8  1  0  0  0  0
  7 18  1  0  0  0  0
  7 20  1  0  0  0  0
  8 19  2  0  0  0  0
  9 10  1  0  0  0  0
  9 11  1  0  0  0  0
  9 13  1  0  0  0  0
  9 21  1  0  0  0  0
 10 12  1  0  0  0  0
 10 22  1  0  0  0  0
 10 23  1  0  0  0  0
 11 24  1  0  0  0  0
 11 25  1  0  0  0  0
 12 26  1  0  0  0  0
 12 27  1  0  0  0  0
 13 28  1  0  0  0  0
 13 29  1  0  0  0  0
 14 15  1  0  0  0  0
 14 30  1  0  0  0  0
 14 31  1  0  0  0  0
 16 17  1  0  0  0  0
 17 18  2  0  0  0  0
 17 19  1  0  0  0  0
 18 33  1  0  0  0  0
 19 34  1  0  0  0  0
 20 35  1  0  0  0  0
 20 36  1  0  0  0  0
 20 37  1  0  0  0  0
M  END
> <PUBCHEM_COMPOUND_CID>
51090921

> <PUBCHEM_COMPOUND_CANONICALIZED>
1

> <PUBCHEM_CACTVS_COMPLEXITY>
350

> <PUBCHEM_CACTVS_HBOND_ACCEPTOR>
6

> <PUBCHEM_CACTVS_HBOND_DONOR>
1

> <PUBCHEM_CACTVS_ROTATABLE_BOND>
4

> <PUBCHEM_CACTVS_SUBSKEYS>
AAADceBzoYAAAAAAAAAAAAAAAAAAAWLAAAAAAAAAAAAAAAABgAAAHwAYAAAADQDBmhQugJPIAACqAhF3VACQBAAVgAAQUKEoRFAAAIhAwUAEhIgAHgDAAMAAAAAIAAAAAAAAAAAAAAAAAAAAAAAAAAAAAA==

> <PUBCHEM_IUPAC_OPENEYE_NAME>
1-methyl-N-[[1-(2,2,2-trifluoroethyl)pyrrolidin-3-yl]methyl]pyrazole-4-carboxamide

> <PUBCHEM_IUPAC_CAS_NAME>
1-methyl-N-[[1-(2,2,2-trifluoroethyl)-3-pyrrolidinyl]methyl]-4-pyrazolecarboxamide

> <PUBCHEM_IUPAC_NAME>
1-methyl-N-[[1-(2,2,2-trifluoroethyl)pyrrolidin-3-yl]methyl]pyrazole-4-carboxamide

> <PUBCHEM_IUPAC_SYSTEMATIC_NAME>
1-methyl-N-[[1-[2,2,2-tris(fluoranyl)ethyl]pyrrolidin-3-yl]methyl]pyrazole-4-carboxamide

> <PUBCHEM_IUPAC_TRADITIONAL_NAME>
1-methyl-N-[[1-(2,2,2-trifluoroethyl)pyrrolidin-3-yl]methyl]pyrazole-4-carboxamide

> <PUBCHEM_IUPAC_INCHI>
InChI=1S/C12H17F3N4O/c1-18-7-10(5-17-18)11(20)16-4-9-2-3-19(6-9)8-12(13,14)15/h5,7,9H,2-4,6,8H2,1H3,(H,16,20)

> <PUBCHEM_IUPAC_INCHIKEY>
UHFRJPQNPKLEBM-UHFFFAOYSA-N

> <PUBCHEM_XLOGP3_AA>
1

> <PUBCHEM_EXACT_MASS>
290.135446

> <PUBCHEM_MOLECULAR_FORMULA>
C12H17F3N4O

> <PUBCHEM_MOLECULAR_WEIGHT>
290.28479

> <PUBCHEM_OPENEYE_CAN_SMILES>
CN1C=C(C=N1)C(=O)NCC2CCN(C2)CC(F)(F)F

> <PUBCHEM_OPENEYE_ISO_SMILES>
CN1C=C(C=N1)C(=O)NCC2CCN(C2)CC(F)(F)F

> <PUBCHEM_CACTVS_TPSA>
50.2

> <PUBCHEM_MONOISOTOPIC_WEIGHT>
290.135446

> <PUBCHEM_TOTAL_CHARGE>
0

> <PUBCHEM_HEAVY_ATOM_COUNT>
20

> <PUBCHEM_ATOM_DEF_STEREO_COUNT>
0

> <PUBCHEM_ATOM_UDEF_STEREO_COUNT>
1

> <PUBCHEM_BOND_DEF_STEREO_COUNT>
0

> <PUBCHEM_BOND_UDEF_STEREO_COUNT>
0

> <PUBCHEM_ISOTOPIC_ATOM_COUNT>
0

> <PUBCHEM_COMPONENT_COUNT>
1

> <PUBCHEM_CACTVS_TAUTO_COUNT>
2

> <PUBCHEM_COORDINATE_TYPE>
1
5
255

> <PUBCHEM_BONDANNOTATIONS>
17  18  8
17  19  8
7  18  8
7  8  8
8  19  8
9  13  3

$$$$

