47205289
  -OEChem-06241222582D

 29 31  0     0  0  0  0  0  0999 V2000
    4.3211    0.9123    0.0000 O   0  0  0  0  0  0  0  0  0  0  0  0
    5.9674    0.3742    0.0000 N   0  0  0  0  0  0  0  0  0  0  0  0
    4.6783   -2.3920    0.0000 N   0  0  0  0  0  0  0  0  0  0  0  0
    5.2619   -1.5872    0.0000 N   0  0  0  0  0  0  0  0  0  0  0  0
    7.6649    2.4438    0.0000 N   0  0  0  0  0  0  0  0  0  0  0  0
    8.6593    2.3376    0.0000 N   0  0  0  0  0  0  0  0  0  0  0  0
    3.7320   -1.0872    0.0000 C   0  0  0  0  0  0  0  0  0  0  0  0
    4.6783   -0.7825    0.0000 C   0  0  0  0  0  0  0  0  0  0  0  0
    3.7320   -2.0872    0.0000 C   0  0  0  0  0  0  0  0  0  0  0  0
    6.2781    1.3248    0.0000 C   0  0  0  0  0  0  0  0  0  0  0  0
    4.9889    0.1680    0.0000 C   0  0  0  0  0  0  0  0  0  0  0  0
    7.2566    1.5310    0.0000 C   0  0  0  0  0  0  0  0  0  0  0  0
    2.8660   -0.5872    0.0000 C   0  0  0  0  0  0  0  0  0  0  0  0
    2.8660   -2.5872    0.0000 C   0  0  0  0  0  0  0  0  0  0  0  0
    2.0000   -1.0872    0.0000 C   0  0  0  0  0  0  0  0  0  0  0  0
    2.0000   -2.0872    0.0000 C   0  0  0  0  0  0  0  0  0  0  0  0
    7.9986    0.8606    0.0000 C   0  0  0  0  0  0  0  0  0  0  0  0
    8.8655    1.3591    0.0000 C   0  0  0  0  0  0  0  0  0  0  0  0
    6.2575    1.9444    0.0000 H   0  0  0  0  0  0  0  0  0  0  0  0
    5.6643    1.4121    0.0000 H   0  0  0  0  0  0  0  0  0  0  0  0
    6.3815   -0.0872    0.0000 H   0  0  0  0  0  0  0  0  0  0  0  0
    2.8660    0.0328    0.0000 H   0  0  0  0  0  0  0  0  0  0  0  0
    4.8709   -2.9813    0.0000 H   0  0  0  0  0  0  0  0  0  0  0  0
    2.8660   -3.2072    0.0000 H   0  0  0  0  0  0  0  0  0  0  0  0
    1.4631   -0.7772    0.0000 H   0  0  0  0  0  0  0  0  0  0  0  0
    1.4631   -2.3972    0.0000 H   0  0  0  0  0  0  0  0  0  0  0  0
    7.9327    0.2441    0.0000 H   0  0  0  0  0  0  0  0  0  0  0  0
    7.3558    2.9813    0.0000 H   0  0  0  0  0  0  0  0  0  0  0  0
    9.4314    1.1059    0.0000 H   0  0  0  0  0  0  0  0  0  0  0  0
  1 11  2  0  0  0  0
  2 10  1  0  0  0  0
  2 11  1  0  0  0  0
  2 21  1  0  0  0  0
  3  4  1  0  0  0  0
  3  9  1  0  0  0  0
  3 23  1  0  0  0  0
  4  8  2  0  0  0  0
  5  6  1  0  0  0  0
  5 12  1  0  0  0  0
  5 28  1  0  0  0  0
  6 18  2  0  0  0  0
  7  8  1  0  0  0  0
  7  9  1  0  0  0  0
  7 13  2  0  0  0  0
  8 11  1  0  0  0  0
  9 14  2  0  0  0  0
 10 12  1  0  0  0  0
 10 19  1  0  0  0  0
 10 20  1  0  0  0  0
 12 17  2  0  0  0  0
 13 15  1  0  0  0  0
 13 22  1  0  0  0  0
 14 16  1  0  0  0  0
 14 24  1  0  0  0  0
 15 16  2  0  0  0  0
 15 25  1  0  0  0  0
 16 26  1  0  0  0  0
 17 18  1  0  0  0  0
 17 27  1  0  0  0  0
 18 29  1  0  0  0  0
M  END
> <PUBCHEM_COMPOUND_CID>
47205289

> <PUBCHEM_COMPOUND_CANONICALIZED>
1

> <PUBCHEM_CACTVS_COMPLEXITY>
311

> <PUBCHEM_CACTVS_HBOND_ACCEPTOR>
3

> <PUBCHEM_CACTVS_HBOND_DONOR>
3

> <PUBCHEM_CACTVS_ROTATABLE_BOND>
3

> <PUBCHEM_CACTVS_SUBSKEYS>
AAADccBzoAAAAAAAAAAAAAAAAAAAAWLAAAAwAAAAAAAAAFgB/AAAHgAYAAAADAjBngQ8wPLjAACqAzV3UACSBAAmggAYuaG4ZNgIYLKA1dGUpQhgngCIyQcciICOAAAAAAACAAAAAAAAAAQAAAAAAAAAAA==

> <PUBCHEM_IUPAC_OPENEYE_NAME>
N-(1H-pyrazol-5-ylmethyl)-1H-indazole-3-carboxamide

> <PUBCHEM_IUPAC_CAS_NAME>
N-(1H-pyrazol-5-ylmethyl)-1H-indazole-3-carboxamide

> <PUBCHEM_IUPAC_NAME>
N-(1H-pyrazol-5-ylmethyl)-1H-indazole-3-carboxamide

> <PUBCHEM_IUPAC_SYSTEMATIC_NAME>
N-(1H-pyrazol-5-ylmethyl)-1H-indazole-3-carboxamide

> <PUBCHEM_IUPAC_TRADITIONAL_NAME>
N-(1H-pyrazol-5-ylmethyl)-1H-indazole-3-carboxamide

> <PUBCHEM_IUPAC_INCHI>
InChI=1S/C12H11N5O/c18-12(13-7-8-5-6-14-15-8)11-9-3-1-2-4-10(9)16-17-11/h1-6H,7H2,(H,13,18)(H,14,15)(H,16,17)

> <PUBCHEM_IUPAC_INCHIKEY>
FWZWSJZSKGWKOD-UHFFFAOYSA-N

> <PUBCHEM_XLOGP3_AA>
1

> <PUBCHEM_EXACT_MASS>
241.09636

> <PUBCHEM_MOLECULAR_FORMULA>
C12H11N5O

> <PUBCHEM_MOLECULAR_WEIGHT>
241.24864

> <PUBCHEM_OPENEYE_CAN_SMILES>
C1=CC=C2C(=C1)C(=NN2)C(=O)NCC3=CC=NN3

> <PUBCHEM_OPENEYE_ISO_SMILES>
C1=CC=C2C(=C1)C(=NN2)C(=O)NCC3=CC=NN3

> <PUBCHEM_CACTVS_TPSA>
86.5

> <PUBCHEM_MONOISOTOPIC_WEIGHT>
241.09636

> <PUBCHEM_TOTAL_CHARGE>
0

> <PUBCHEM_HEAVY_ATOM_COUNT>
18

> <PUBCHEM_ATOM_DEF_STEREO_COUNT>
0

> <PUBCHEM_ATOM_UDEF_STEREO_COUNT>
0

> <PUBCHEM_BOND_DEF_STEREO_COUNT>
0

> <PUBCHEM_BOND_UDEF_STEREO_COUNT>
0

> <PUBCHEM_ISOTOPIC_ATOM_COUNT>
0

> <PUBCHEM_COMPONENT_COUNT>
1

> <PUBCHEM_CACTVS_TAUTO_COUNT>
14

> <PUBCHEM_COORDINATE_TYPE>
1
5
255

> <PUBCHEM_BONDANNOTATIONS>
12  17  8
13  15  8
14  16  8
15  16  8
17  18  8
3  4  8
3  9  8
4  8  8
5  12  8
5  6  8
6  18  8
7  13  8
7  8  8
7  9  8
9  14  8

$$$$

