582757
  -OEChem-06241222432D

 35 37  0     0  0  0  0  0  0999 V2000
    2.6197   -0.3644    0.0000 N   0  0  0  0  0  0  0  0  0  0  0  0
    4.1693    0.0785    0.0000 C   0  0  0  0  0  0  0  0  0  0  0  0
    3.2296    0.4206    0.0000 C   0  0  0  0  0  0  0  0  0  0  0  0
    5.1090    0.4206    0.0000 C   0  0  0  0  0  0  0  0  0  0  0  0
    2.7296    1.2866    0.0000 C   0  0  0  0  0  0  0  0  0  0  0  0
    5.6090    1.2866    0.0000 C   0  0  0  0  0  0  0  0  0  0  0  0
    2.9033    2.2714    0.0000 C   0  0  0  0  0  0  0  0  0  0  0  0
    5.4354    2.2714    0.0000 C   0  0  0  0  0  0  0  0  0  0  0  0
    3.6693    2.9142    0.0000 C   0  0  0  0  0  0  0  0  0  0  0  0
    4.6693    2.9142    0.0000 C   0  0  0  0  0  0  0  0  0  0  0  0
    4.1321   -0.9148    0.0000 C   0  0  0  0  0  0  0  0  0  0  0  0
    3.1762   -1.1880    0.0000 C   0  0  0  0  0  0  0  0  0  0  0  0
    4.8873   -1.6232    0.0000 C   0  0  0  0  0  0  0  0  0  0  0  0
    2.9094   -2.1885    0.0000 C   0  0  0  0  0  0  0  0  0  0  0  0
    4.6437   -2.6296    0.0000 C   0  0  0  0  0  0  0  0  0  0  0  0
    3.6481   -2.9142    0.0000 C   0  0  0  0  0  0  0  0  0  0  0  0
    5.1451   -0.1984    0.0000 H   0  0  0  0  0  0  0  0  0  0  0  0
    5.7123    0.2776    0.0000 H   0  0  0  0  0  0  0  0  0  0  0  0
    2.1756    1.5648    0.0000 H   0  0  0  0  0  0  0  0  0  0  0  0
    2.3042    0.8356    0.0000 H   0  0  0  0  0  0  0  0  0  0  0  0
    6.0345    0.8356    0.0000 H   0  0  0  0  0  0  0  0  0  0  0  0
    6.1631    1.5648    0.0000 H   0  0  0  0  0  0  0  0  0  0  0  0
    2.6577    2.8407    0.0000 H   0  0  0  0  0  0  0  0  0  0  0  0
    2.2875    2.1994    0.0000 H   0  0  0  0  0  0  0  0  0  0  0  0
    6.0512    2.1994    0.0000 H   0  0  0  0  0  0  0  0  0  0  0  0
    5.6810    2.8407    0.0000 H   0  0  0  0  0  0  0  0  0  0  0  0
    3.8472    3.5081    0.0000 H   0  0  0  0  0  0  0  0  0  0  0  0
    3.1513    3.2549    0.0000 H   0  0  0  0  0  0  0  0  0  0  0  0
    5.1873    3.2549    0.0000 H   0  0  0  0  0  0  0  0  0  0  0  0
    4.4915    3.5081    0.0000 H   0  0  0  0  0  0  0  0  0  0  0  0
    2.0000   -0.3438    0.0000 H   0  0  0  0  0  0  0  0  0  0  0  0
    5.4814   -1.4460    0.0000 H   0  0  0  0  0  0  0  0  0  0  0  0
    2.3114   -2.3520    0.0000 H   0  0  0  0  0  0  0  0  0  0  0  0
    5.0910   -3.0590    0.0000 H   0  0  0  0  0  0  0  0  0  0  0  0
    3.4952   -3.5150    0.0000 H   0  0  0  0  0  0  0  0  0  0  0  0
  1  3  1  0  0  0  0
  1 12  1  0  0  0  0
  1 31  1  0  0  0  0
  2  3  2  0  0  0  0
  2  4  1  0  0  0  0
  2 11  1  0  0  0  0
  3  5  1  0  0  0  0
  4  6  1  0  0  0  0
  4 17  1  0  0  0  0
  4 18  1  0  0  0  0
  5  7  1  0  0  0  0
  5 19  1  0  0  0  0
  5 20  1  0  0  0  0
  6  8  1  0  0  0  0
  6 21  1  0  0  0  0
  6 22  1  0  0  0  0
  7  9  1  0  0  0  0
  7 23  1  0  0  0  0
  7 24  1  0  0  0  0
  8 10  1  0  0  0  0
  8 25  1  0  0  0  0
  8 26  1  0  0  0  0
  9 10  1  0  0  0  0
  9 27  1  0  0  0  0
  9 28  1  0  0  0  0
 10 29  1  0  0  0  0
 10 30  1  0  0  0  0
 11 12  1  0  0  0  0
 11 13  2  0  0  0  0
 12 14  2  0  0  0  0
 13 15  1  0  0  0  0
 13 32  1  0  0  0  0
 14 16  1  0  0  0  0
 14 33  1  0  0  0  0
 15 16  2  0  0  0  0
 15 34  1  0  0  0  0
 16 35  1  0  0  0  0
M  END
> <PUBCHEM_COMPOUND_CID>
582757

> <PUBCHEM_COMPOUND_CANONICALIZED>
1

> <PUBCHEM_CACTVS_COMPLEXITY>
226

> <PUBCHEM_CACTVS_HBOND_ACCEPTOR>
0

> <PUBCHEM_CACTVS_HBOND_DONOR>
1

> <PUBCHEM_CACTVS_ROTATABLE_BOND>
0

> <PUBCHEM_CACTVS_SUBSKEYS>
AAADceByAAAAAAAAAAAAAAAAAAAAAWAAAAAwAAAAAAAAAHgB8AAAHAAQAAAADAiBHgAwwPLJkACgAyRiRACCgCAhAiAImSAwZJgIIOLAkZGEIAhgkADIyAcQgMAOgAAAAAACAAAAAAAAAAQAAAAAAAAAAA==

> <PUBCHEM_IUPAC_OPENEYE_NAME>
5,6,7,8,9,10,11,12-octahydrocyclonona[b]indole

> <PUBCHEM_IUPAC_CAS_NAME>
5,6,7,8,9,10,11,12-octahydrocyclonona[b]indole

> <PUBCHEM_IUPAC_NAME>
5,6,7,8,9,10,11,12-octahydrocyclonona[b]indole

> <PUBCHEM_IUPAC_SYSTEMATIC_NAME>
5,6,7,8,9,10,11,12-octahydrocyclonona[b]indole

> <PUBCHEM_IUPAC_TRADITIONAL_NAME>
5,6,7,8,9,10,11,12-octahydrocyclonon[b]indole

> <PUBCHEM_IUPAC_INCHI>
InChI=1S/C15H19N/c1-2-4-8-12-13-9-6-7-11-15(13)16-14(12)10-5-3-1/h6-7,9,11,16H,1-5,8,10H2

> <PUBCHEM_IUPAC_INCHIKEY>
LQBNTQJUHYITNL-UHFFFAOYSA-N

> <PUBCHEM_XLOGP3_AA>
4.9

> <PUBCHEM_EXACT_MASS>
213.15175

> <PUBCHEM_MOLECULAR_FORMULA>
C15H19N

> <PUBCHEM_MOLECULAR_WEIGHT>
213.31806

> <PUBCHEM_OPENEYE_CAN_SMILES>
C1CCCC2=C(CCC1)NC3=CC=CC=C23

> <PUBCHEM_OPENEYE_ISO_SMILES>
C1CCCC2=C(CCC1)NC3=CC=CC=C23

> <PUBCHEM_CACTVS_TPSA>
15.8

> <PUBCHEM_MONOISOTOPIC_WEIGHT>
213.15175

> <PUBCHEM_TOTAL_CHARGE>
0

> <PUBCHEM_HEAVY_ATOM_COUNT>
16

> <PUBCHEM_ATOM_DEF_STEREO_COUNT>
0

> <PUBCHEM_ATOM_UDEF_STEREO_COUNT>
0

> <PUBCHEM_BOND_DEF_STEREO_COUNT>
0

> <PUBCHEM_BOND_UDEF_STEREO_COUNT>
0

> <PUBCHEM_ISOTOPIC_ATOM_COUNT>
0

> <PUBCHEM_COMPONENT_COUNT>
1

> <PUBCHEM_CACTVS_TAUTO_COUNT>
1

> <PUBCHEM_COORDINATE_TYPE>
1
5
255

> <PUBCHEM_BONDANNOTATIONS>
1  12  8
1  3  8
11  12  8
11  13  8
12  14  8
13  15  8
14  16  8
15  16  8
2  11  8
2  3  8

$$$$

