854340
  -OEChem-06241222483D

 25 26  0     1  0  0  0  0  0999 V2000
    0.7551    1.8182    0.3110 O   0  0  0  0  0  0  0  0  0  0  0  0
   -1.2293    2.9176    0.0126 O   0  0  0  0  0  0  0  0  0  0  0  0
   -3.5699   -0.7160    1.3774 O   0  0  0  0  0  0  0  0  0  0  0  0
   -3.3617   -1.2197   -0.8325 O   0  0  0  0  0  0  0  0  0  0  0  0
   -0.5502   -0.5582   -0.6292 C   0  0  1  0  0  0  0  0  0  0  0  0
   -0.9488    0.8244   -1.1410 C   0  0  0  0  0  0  0  0  0  0  0  0
    0.9137   -0.5452   -0.2922 C   0  0  0  0  0  0  0  0  0  0  0  0
   -1.3875   -0.9856    0.5780 C   0  0  0  0  0  0  0  0  0  0  0  0
    1.5083    0.6367    0.1519 C   0  0  0  0  0  0  0  0  0  0  0  0
   -0.5285    1.9359   -0.2109 C   0  0  0  0  0  0  0  0  0  0  0  0
    1.7023   -1.6958   -0.3939 C   0  0  0  0  0  0  0  0  0  0  0  0
    2.8588    0.6929    0.4926 C   0  0  0  0  0  0  0  0  0  0  0  0
   -2.8558   -0.9965    0.2571 C   0  0  0  0  0  0  0  0  0  0  0  0
    3.0585   -1.6505   -0.0613 C   0  0  0  0  0  0  0  0  0  0  0  0
    3.6352   -0.4583    0.3804 C   0  0  0  0  0  0  0  0  0  0  0  0
   -0.7186   -1.2683   -1.4504 H   0  0  0  0  0  0  0  0  0  0  0  0
   -2.0259    0.9068   -1.3142 H   0  0  0  0  0  0  0  0  0  0  0  0
   -0.4642    1.0249   -2.1060 H   0  0  0  0  0  0  0  0  0  0  0  0
   -1.1115   -1.9943    0.9075 H   0  0  0  0  0  0  0  0  0  0  0  0
   -1.2101   -0.3061    1.4215 H   0  0  0  0  0  0  0  0  0  0  0  0
    1.2674   -2.6329   -0.7313 H   0  0  0  0  0  0  0  0  0  0  0  0
    3.3058    1.6180    0.8437 H   0  0  0  0  0  0  0  0  0  0  0  0
    3.6659   -2.5473   -0.1442 H   0  0  0  0  0  0  0  0  0  0  0  0
    4.6894   -0.4300    0.6405 H   0  0  0  0  0  0  0  0  0  0  0  0
   -4.5356   -0.7141    1.2045 H   0  0  0  0  0  0  0  0  0  0  0  0
  1  9  1  0  0  0  0
  1 10  1  0  0  0  0
  2 10  2  0  0  0  0
  3 13  1  0  0  0  0
  3 25  1  0  0  0  0
  4 13  2  0  0  0  0
  5  6  1  0  0  0  0
  5  7  1  0  0  0  0
  5  8  1  0  0  0  0
  5 16  1  0  0  0  0
  6 10  1  0  0  0  0
  6 17  1  0  0  0  0
  6 18  1  0  0  0  0
  7  9  1  0  0  0  0
  7 11  2  0  0  0  0
  8 13  1  0  0  0  0
  8 19  1  0  0  0  0
  8 20  1  0  0  0  0
  9 12  2  0  0  0  0
 11 14  1  0  0  0  0
 11 21  1  0  0  0  0
 12 15  1  0  0  0  0
 12 22  1  0  0  0  0
 14 15  2  0  0  0  0
 14 23  1  0  0  0  0
 15 24  1  0  0  0  0
M  END
> <PUBCHEM_COMPOUND_CID>
854340

> <PUBCHEM_CONFORMER_RMSD>
0.6

> <PUBCHEM_CONFORMER_DIVERSEORDER>
1
2
5
6
3
4

> <PUBCHEM_MMFF94_PARTIAL_CHARGES>
20
1 -0.23
10 0.66
11 -0.15
12 -0.15
13 0.66
14 -0.15
15 -0.15
2 -0.57
21 0.15
22 0.15
23 0.15
24 0.15
25 0.5
3 -0.65
4 -0.57
5 0.14
6 0.06
7 -0.14
8 0.06
9 0.08

> <PUBCHEM_EFFECTIVE_ROTOR_COUNT>
2.6

> <PUBCHEM_PHARMACOPHORE_FEATURES>
6
1 2 acceptor
1 3 acceptor
1 4 acceptor
3 3 4 13 anion
6 1 5 6 7 9 10 rings
6 7 9 11 12 14 15 rings

> <PUBCHEM_HEAVY_ATOM_COUNT>
15

> <PUBCHEM_ATOM_DEF_STEREO_COUNT>
1

> <PUBCHEM_ATOM_UDEF_STEREO_COUNT>
0

> <PUBCHEM_BOND_DEF_STEREO_COUNT>
0

> <PUBCHEM_BOND_UDEF_STEREO_COUNT>
0

> <PUBCHEM_ISOTOPIC_ATOM_COUNT>
0

> <PUBCHEM_COMPONENT_COUNT>
1

> <PUBCHEM_CACTVS_TAUTO_COUNT>
1

> <PUBCHEM_CONFORMER_ID>
000D094400000001

> <PUBCHEM_MMFF94_ENERGY>
38.1355

> <PUBCHEM_FEATURE_SELFOVERLAP>
30.531

> <PUBCHEM_SHAPE_FINGERPRINT>
10219947 1 18337111150871173926
10618630 7 18342176669749407558
11086676 242 18338499902876648441
11471102 22 18410007698119412266
11578080 2 16880515573229280921
11680611 10 17916033554009701616
11680986 33 17901953268345051486
12251169 10 18187357706091911299
12423570 1 15876202191520573748
12730499 353 16831224784716007093
13140716 1 17977957787103991874
13380535 21 18120084246265604220
13583140 156 4750868217578978647
14251717 144 18264497195454855855
14790565 3 17906446637065748752
15219456 202 18410300232779159358
15375462 478 17676765388446981011
15501101 241 18339923705883371726
15848700 24 18340216206268121119
16945 1 18338235964267088502
17844478 74 18410855481882612110
20201158 50 18343589516337120778
20871998 184 18188776166164372732
20871998 22 18336255821114159526
21130352 189 18340207384405216891
21501502 16 18339922739958835164
22721475 48 18413669106268190286
22802520 49 17899131904307080366
2334 1 18337676424765632974
23559900 14 17686626049908657502
2748010 2 18190753109883599444
6992083 37 18114741530214268415
81228 2 18200024183017539289
8809292 202 18050568740201546046

> <PUBCHEM_SHAPE_MULTIPOLES>
285.22
5.4
2.29
0.93
0.27
1.44
-0.01
-2.68
-1.12
0.5
0.05
0.51
-0.1
0.41

> <PUBCHEM_SHAPE_SELFOVERLAP>
611.115

> <PUBCHEM_SHAPE_VOLUME>
156

> <PUBCHEM_COORDINATE_TYPE>
2
5
10

$$$$

