4703
  -OEChem-06261200183D

 23 23  0     0  0  0  0  0  0999 V2000
   -1.6045    1.9734   -0.1060 S   0  0  0  0  0  0  0  0  0  0  0  0
   -3.5713   -1.4399    0.0824 O   0  0  0  0  0  0  0  0  0  0  0  0
   -4.3062    0.6987   -0.0432 O   0  0  0  0  0  0  0  0  0  0  0  0
    0.4720   -0.4171    0.0238 C   0  0  0  0  0  0  0  0  0  0  0  0
    3.2195    0.0655   -0.0034 C   0  0  0  0  0  0  0  0  0  0  0  0
    1.1621   -0.3826   -1.1879 C   0  0  0  0  0  0  0  0  0  0  0  0
    1.1556   -0.2101    1.2219 C   0  0  0  0  0  0  0  0  0  0  0  0
    2.5359   -0.1415   -1.2014 C   0  0  0  0  0  0  0  0  0  0  0  0
    2.5295    0.0312    1.2083 C   0  0  0  0  0  0  0  0  0  0  0  0
   -0.9605   -0.6686    0.0378 C   0  0  0  0  0  0  0  0  0  0  0  0
    4.6883    0.3243   -0.0182 C   0  0  0  0  0  0  0  0  0  0  0  0
   -1.9377    0.2680   -0.0201 C   0  0  0  0  0  0  0  0  0  0  0  0
   -3.3826   -0.1012    0.0060 C   0  0  0  0  0  0  0  0  0  0  0  0
    0.6434   -0.5420   -2.1303 H   0  0  0  0  0  0  0  0  0  0  0  0
    0.6321   -0.2342    2.1747 H   0  0  0  0  0  0  0  0  0  0  0  0
    3.0622   -0.1152   -2.1519 H   0  0  0  0  0  0  0  0  0  0  0  0
    3.0506    0.1928    2.1481 H   0  0  0  0  0  0  0  0  0  0  0  0
   -1.2056   -1.7264    0.0975 H   0  0  0  0  0  0  0  0  0  0  0  0
    5.1648   -0.0496    0.8943 H   0  0  0  0  0  0  0  0  0  0  0  0
    5.1701   -0.1821   -0.8615 H   0  0  0  0  0  0  0  0  0  0  0  0
    4.8794    1.3990   -0.0986 H   0  0  0  0  0  0  0  0  0  0  0  0
   -2.8662    2.4277   -0.1340 H   0  0  0  0  0  0  0  0  0  0  0  0
   -4.5232   -1.6766    0.0958 H   0  0  0  0  0  0  0  0  0  0  0  0
  1 12  1  0  0  0  0
  1 22  1  0  0  0  0
  2 13  1  0  0  0  0
  2 23  1  0  0  0  0
  3 13  2  0  0  0  0
  4  6  2  0  0  0  0
  4  7  1  0  0  0  0
  4 10  1  0  0  0  0
  5  8  2  0  0  0  0
  5  9  1  0  0  0  0
  5 11  1  0  0  0  0
  6  8  1  0  0  0  0
  6 14  1  0  0  0  0
  7  9  2  0  0  0  0
  7 15  1  0  0  0  0
  8 16  1  0  0  0  0
  9 17  1  0  0  0  0
 10 12  2  0  0  0  0
 10 18  1  0  0  0  0
 11 19  1  0  0  0  0
 11 20  1  0  0  0  0
 11 21  1  0  0  0  0
 12 13  1  0  0  0  0
M  END
> <PUBCHEM_COMPOUND_CID>
4703

> <PUBCHEM_CONFORMER_RMSD>
0.6

> <PUBCHEM_CONFORMER_DIVERSEORDER>
1
2
3

> <PUBCHEM_MMFF94_PARTIAL_CHARGES>
20
1 -0.28
10 -0.18
11 0.14
12 0.12
13 0.71
14 0.15
15 0.15
16 0.15
17 0.15
18 0.15
2 -0.65
22 0.18
23 0.5
3 -0.57
4 0.03
5 -0.14
6 -0.15
7 -0.15
8 -0.15
9 -0.15

> <PUBCHEM_EFFECTIVE_ROTOR_COUNT>
2

> <PUBCHEM_PHARMACOPHORE_FEATURES>
4
1 2 acceptor
1 3 acceptor
3 2 3 13 anion
6 4 5 6 7 8 9 rings

> <PUBCHEM_HEAVY_ATOM_COUNT>
13

> <PUBCHEM_ATOM_DEF_STEREO_COUNT>
0

> <PUBCHEM_ATOM_UDEF_STEREO_COUNT>
0

> <PUBCHEM_BOND_DEF_STEREO_COUNT>
0

> <PUBCHEM_BOND_UDEF_STEREO_COUNT>
1

> <PUBCHEM_ISOTOPIC_ATOM_COUNT>
0

> <PUBCHEM_COMPONENT_COUNT>
1

> <PUBCHEM_CACTVS_TAUTO_COUNT>
2

> <PUBCHEM_CONFORMER_ID>
0000125F00000001

> <PUBCHEM_MMFF94_ENERGY>
37.1828

> <PUBCHEM_FEATURE_SELFOVERLAP>
20.357

> <PUBCHEM_SHAPE_FINGERPRINT>
11031198 65 16588022394585627780
11062470 55 13686300183658298242
11471102 20 16153428350596169218
12236239 1 17632859728501741027
12932764 1 17603599546427510878
13214271 11 18259988158794066349
13581323 91 18412268328612665702
14144814 61 16486976219114449923
14911166 2 15936405616377820844
14993402 34 16845572011240011506
15219456 202 17749105651130192612
15775835 57 17703789240641889837
17844478 74 17676485055641511753
18175812 5 17821732706444910837
18186145 218 17749376109436745614
200 152 16702307836515954455
20201158 50 17095239228665480798
20279233 1 17894347783074975519
20344682 1 17894910724048059332
20645477 70 16443621423459201015
22802520 49 17461713184522664356
23048698 100 17060616707213588620
23402539 116 18411143523674479582
23402655 69 15984834739351522087
23557571 272 18261388979220253397
23559900 14 18335416902817339326
26918003 58 15267339626516707873
474 4 17201912627554749492
528886 8 15502380023709820654
77492 1 17560801039220778795

> <PUBCHEM_SHAPE_MULTIPOLES>
259.64
7.69
1.2
1.07
0.73
0.46
-0.01
0.35
0.03
1.14
0.04
-0.82
-0.07
0.13

> <PUBCHEM_SHAPE_SELFOVERLAP>
529.871

> <PUBCHEM_SHAPE_VOLUME>
151

> <PUBCHEM_COORDINATE_TYPE>
2
5
10

$$$$

