5854
  -OEChem-06261200562D

 64 68  0     1  0  0  0  0  0999 V2000
    3.7158   -1.8438    0.0000 O   0  0  0  0  0  0  0  0  0  0  0  0
   10.3658    2.4638    0.0000 O   0  0  0  0  0  0  0  0  0  0  0  0
    2.0116    1.2678    0.0000 O   0  0  0  0  0  0  0  0  0  0  0  0
    3.7319    0.2478    0.0000 N   0  0  0  0  0  0  0  0  0  0  0  0
    6.4668   -0.2983    0.0000 C   0  0  2  0  0  0  0  0  0  0  0  0
    7.3768    0.2085    0.0000 C   0  0  2  0  0  0  0  0  0  0  0  0
    8.2429   -0.2915    0.0000 C   0  0  2  0  0  0  0  0  0  0  0  0
    9.1089    0.2085    0.0000 C   0  0  1  0  0  0  0  0  0  0  0  0
    6.4588   -1.3399    0.0000 C   0  0  1  0  0  0  0  0  0  0  0  0
    9.1089    1.2085    0.0000 C   0  0  2  0  0  0  0  0  0  0  0  0
    7.3768    1.2085    0.0000 C   0  0  0  0  0  0  0  0  0  0  0  0
    8.2589   -1.3330    0.0000 C   0  0  0  0  0  0  0  0  0  0  0  0
    5.5400    0.2658    0.0000 C   0  0  0  0  0  0  0  0  0  0  0  0
    7.3609   -1.8607    0.0000 C   0  0  0  0  0  0  0  0  0  0  0  0
    8.2429    1.7085    0.0000 C   0  0  0  0  0  0  0  0  0  0  0  0
    5.5234   -1.8896    0.0000 C   0  0  0  0  0  0  0  0  0  0  0  0
   10.0551   -0.0962    0.0000 C   0  0  0  0  0  0  0  0  0  0  0  0
    4.5921   -0.2622    0.0000 C   0  0  1  0  0  0  0  0  0  0  0  0
    6.4746    0.7017    0.0000 C   0  0  0  0  0  0  0  0  0  0  0  0
    4.5838   -1.3471    0.0000 C   0  0  1  0  0  0  0  0  0  0  0  0
   10.0551    1.5133    0.0000 C   0  0  0  0  0  0  0  0  0  0  0  0
   10.6387    0.7085    0.0000 C   0  0  0  0  0  0  0  0  0  0  0  0
    9.1089    2.2085    0.0000 C   0  0  0  0  0  0  0  0  0  0  0  0
    2.8602   -0.2421    0.0000 C   0  0  0  0  0  0  0  0  0  0  0  0
    3.7435    1.2477    0.0000 C   0  0  0  0  0  0  0  0  0  0  0  0
    2.0000    0.2678    0.0000 C   0  0  0  0  0  0  0  0  0  0  0  0
    2.8833    1.7577    0.0000 C   0  0  0  0  0  0  0  0  0  0  0  0
    8.1130    0.6335    0.0000 H   0  0  0  0  0  0  0  0  0  0  0  0
    8.9822   -0.7108    0.0000 H   0  0  0  0  0  0  0  0  0  0  0  0
    9.1988   -0.6367    0.0000 H   0  0  0  0  0  0  0  0  0  0  0  0
    6.4621   -2.1899    0.0000 H   0  0  0  0  0  0  0  0  0  0  0  0
    7.1648    1.7912    0.0000 H   0  0  0  0  0  0  0  0  0  0  0  0
    6.7663    1.1009    0.0000 H   0  0  0  0  0  0  0  0  0  0  0  0
    8.4770   -1.9134    0.0000 H   0  0  0  0  0  0  0  0  0  0  0  0
    8.8681   -1.2175    0.0000 H   0  0  0  0  0  0  0  0  0  0  0  0
    5.9482    0.7324    0.0000 H   0  0  0  0  0  0  0  0  0  0  0  0
    5.1501    0.7478    0.0000 H   0  0  0  0  0  0  0  0  0  0  0  0
    6.9636   -2.3367    0.0000 H   0  0  0  0  0  0  0  0  0  0  0  0
    7.7619   -2.3336    0.0000 H   0  0  0  0  0  0  0  0  0  0  0  0
    8.6414    2.1835    0.0000 H   0  0  0  0  0  0  0  0  0  0  0  0
    7.8443    2.1835    0.0000 H   0  0  0  0  0  0  0  0  0  0  0  0
    5.1261   -2.3656    0.0000 H   0  0  0  0  0  0  0  0  0  0  0  0
    5.9243   -2.3625    0.0000 H   0  0  0  0  0  0  0  0  0  0  0  0
    9.8041   -0.6631    0.0000 H   0  0  0  0  0  0  0  0  0  0  0  0
   10.5925   -0.4054    0.0000 H   0  0  0  0  0  0  0  0  0  0  0  0
    4.0522   -0.5670    0.0000 H   0  0  0  0  0  0  0  0  0  0  0  0
    7.0945    0.6969    0.0000 H   0  0  0  0  0  0  0  0  0  0  0  0
    6.4793    1.3216    0.0000 H   0  0  0  0  0  0  0  0  0  0  0  0
    5.8546    0.7064    0.0000 H   0  0  0  0  0  0  0  0  0  0  0  0
    4.5826   -1.9671    0.0000 H   0  0  0  0  0  0  0  0  0  0  0  0
   11.0996    0.2938    0.0000 H   0  0  0  0  0  0  0  0  0  0  0  0
   11.0996    1.1233    0.0000 H   0  0  0  0  0  0  0  0  0  0  0  0
    9.7289    2.2085    0.0000 H   0  0  0  0  0  0  0  0  0  0  0  0
    9.1089    2.8285    0.0000 H   0  0  0  0  0  0  0  0  0  0  0  0
    8.4889    2.2085    0.0000 H   0  0  0  0  0  0  0  0  0  0  0  0
    3.7134   -2.4638    0.0000 H   0  0  0  0  0  0  0  0  0  0  0  0
    2.4562   -0.7125    0.0000 H   0  0  0  0  0  0  0  0  0  0  0  0
    3.2532   -0.7217    0.0000 H   0  0  0  0  0  0  0  0  0  0  0  0
    4.3528    1.1330    0.0000 H   0  0  0  0  0  0  0  0  0  0  0  0
    3.9623    1.8279    0.0000 H   0  0  0  0  0  0  0  0  0  0  0  0
    1.3907    0.3826    0.0000 H   0  0  0  0  0  0  0  0  0  0  0  0
    1.7812   -0.3123    0.0000 H   0  0  0  0  0  0  0  0  0  0  0  0
    3.2873    2.2280    0.0000 H   0  0  0  0  0  0  0  0  0  0  0  0
    2.4903    2.2372    0.0000 H   0  0  0  0  0  0  0  0  0  0  0  0
 20  1  1  6  0  0  0
  1 56  1  0  0  0  0
  2 21  2  0  0  0  0
  3 26  1  0  0  0  0
  3 27  1  0  0  0  0
 18  4  1  1  0  0  0
  4 24  1  0  0  0  0
  4 25  1  0  0  0  0
  5  6  1  0  0  0  0
  5  9  1  0  0  0  0
  5 13  1  0  0  0  0
  5 19  1  1  0  0  0
  6  7  1  0  0  0  0
  6 11  1  0  0  0  0
  6 28  1  6  0  0  0
  7  8  1  0  0  0  0
  7 12  1  0  0  0  0
  7 29  1  1  0  0  0
  8 10  1  0  0  0  0
  8 17  1  0  0  0  0
  8 30  1  6  0  0  0
  9 14  1  0  0  0  0
  9 16  1  0  0  0  0
  9 31  1  6  0  0  0
 10 15  1  0  0  0  0
 10 21  1  0  0  0  0
 10 23  1  1  0  0  0
 11 15  1  0  0  0  0
 11 32  1  0  0  0  0
 11 33  1  0  0  0  0
 12 14  1  0  0  0  0
 12 34  1  0  0  0  0
 12 35  1  0  0  0  0
 13 18  1  0  0  0  0
 13 36  1  0  0  0  0
 13 37  1  0  0  0  0
 14 38  1  0  0  0  0
 14 39  1  0  0  0  0
 15 40  1  0  0  0  0
 15 41  1  0  0  0  0
 16 20  1  0  0  0  0
 16 42  1  0  0  0  0
 16 43  1  0  0  0  0
 17 22  1  0  0  0  0
 17 44  1  0  0  0  0
 17 45  1  0  0  0  0
 18 20  1  0  0  0  0
 18 46  1  0  0  0  0
 19 47  1  0  0  0  0
 19 48  1  0  0  0  0
 19 49  1  0  0  0  0
 20 50  1  0  0  0  0
 21 22  1  0  0  0  0
 22 51  1  0  0  0  0
 22 52  1  0  0  0  0
 23 53  1  0  0  0  0
 23 54  1  0  0  0  0
 23 55  1  0  0  0  0
 24 26  1  0  0  0  0
 24 57  1  0  0  0  0
 24 58  1  0  0  0  0
 25 27  1  0  0  0  0
 25 59  1  0  0  0  0
 25 60  1  0  0  0  0
 26 61  1  0  0  0  0
 26 62  1  0  0  0  0
 27 63  1  0  0  0  0
 27 64  1  0  0  0  0
M  END
> <PUBCHEM_COMPOUND_CID>
5854

> <PUBCHEM_COMPOUND_CANONICALIZED>
1

> <PUBCHEM_CACTVS_COMPLEXITY>
602

> <PUBCHEM_CACTVS_HBOND_ACCEPTOR>
4

> <PUBCHEM_CACTVS_HBOND_DONOR>
1

> <PUBCHEM_CACTVS_ROTATABLE_BOND>
1

> <PUBCHEM_CACTVS_SUBSKEYS>
AAADcfB6MAAAAAAAAAAAAAAAAAAAAYAAAAA8YMEAAAAAAGDAAAAAHgAACAAADzzhgAYCAAMABgAIAIAQAAAAAAAAAAAAAAEIAAACEBIAgAAHQAAEAACQAAGYyPCPgAAAAAAAAADQAAaAACAgAAAACAAAAA==

> <PUBCHEM_IUPAC_OPENEYE_NAME>
(2S,3S,5S,8R,9S,10S,13S,14S)-3-hydroxy-10,13-dimethyl-2-morpholino-1,2,3,4,5,6,7,8,9,11,12,14,15,16-tetradecahydrocyclopenta[a]phenanthren-17-one

> <PUBCHEM_IUPAC_CAS_NAME>
(2S,3S,5S,8R,9S,10S,13S,14S)-3-hydroxy-10,13-dimethyl-2-(4-morpholinyl)-1,2,3,4,5,6,7,8,9,11,12,14,15,16-tetradecahydrocyclopenta[a]phenanthren-17-one

> <PUBCHEM_IUPAC_NAME>
(2S,3S,5S,8R,9S,10S,13S,14S)-3-hydroxy-10,13-dimethyl-2-morpholin-4-yl-1,2,3,4,5,6,7,8,9,11,12,14,15,16-tetradecahydrocyclopenta[a]phenanthren-17-one

> <PUBCHEM_IUPAC_SYSTEMATIC_NAME>
(2S,3S,5S,8R,9S,10S,13S,14S)-10,13-dimethyl-2-morpholin-4-yl-3-oxidanyl-1,2,3,4,5,6,7,8,9,11,12,14,15,16-tetradecahydrocyclopenta[a]phenanthren-17-one

> <PUBCHEM_IUPAC_TRADITIONAL_NAME>
(2S,3S,5S,8R,9S,10S,13S,14S)-3-hydroxy-10,13-dimethyl-2-morpholino-1,2,3,4,5,6,7,8,9,11,12,14,15,16-tetradecahydrocyclopenta[a]phenanthren-17-one

> <PUBCHEM_IUPAC_INCHI>
InChI=1S/C23H37NO3/c1-22-8-7-18-16(17(22)5-6-21(22)26)4-3-15-13-20(25)19(14-23(15,18)2)24-9-11-27-12-10-24/h15-20,25H,3-14H2,1-2H3/t15-,16-,17-,18-,19-,20-,22-,23-/m0/s1

> <PUBCHEM_IUPAC_INCHIKEY>
KFWLDVAUZFLXMB-UZBJCSTBSA-N

> <PUBCHEM_XLOGP3>
3.1

> <PUBCHEM_EXACT_MASS>
375.277344

> <PUBCHEM_MOLECULAR_FORMULA>
C23H37NO3

> <PUBCHEM_MOLECULAR_WEIGHT>
375.54478

> <PUBCHEM_OPENEYE_CAN_SMILES>
CC12CCC3C(C1CCC2=O)CCC4C3(CC(C(C4)O)N5CCOCC5)C

> <PUBCHEM_OPENEYE_ISO_SMILES>
C[C@]12CC[C@H]3[C@H]([C@@H]1CCC2=O)CC[C@@H]4[C@@]3(C[C@@H]([C@H](C4)O)N5CCOCC5)C

> <PUBCHEM_CACTVS_TPSA>
49.8

> <PUBCHEM_MONOISOTOPIC_WEIGHT>
375.277344

> <PUBCHEM_TOTAL_CHARGE>
0

> <PUBCHEM_HEAVY_ATOM_COUNT>
27

> <PUBCHEM_ATOM_DEF_STEREO_COUNT>
8

> <PUBCHEM_ATOM_UDEF_STEREO_COUNT>
0

> <PUBCHEM_BOND_DEF_STEREO_COUNT>
0

> <PUBCHEM_BOND_UDEF_STEREO_COUNT>
0

> <PUBCHEM_ISOTOPIC_ATOM_COUNT>
0

> <PUBCHEM_COMPONENT_COUNT>
1

> <PUBCHEM_CACTVS_TAUTO_COUNT>
2

> <PUBCHEM_COORDINATE_TYPE>
1
5
255

> <PUBCHEM_BONDANNOTATIONS>
20  1  6
10  23  5
18  4  5
5  19  5
6  28  6
7  29  5
8  30  6
9  31  6

$$$$

