17395429
  -OEChem-06241222503D

 43 45  0     0  0  0  0  0  0999 V2000
   -3.9657    1.9403    0.3589 S   0  0  0  0  0  0  0  0  0  0  0  0
    1.0879    3.4207   -0.4721 S   0  0  0  0  0  0  0  0  0  0  0  0
   -1.7989   -2.9721    1.4081 O   0  0  0  0  0  0  0  0  0  0  0  0
   -1.2055   -2.7670   -0.8282 N   0  0  0  0  0  0  0  0  0  0  0  0
    4.1347    0.4982    0.4064 N   0  0  0  0  0  0  0  0  0  0  0  0
   -2.1595    0.1664   -0.1643 N   0  0  0  0  0  0  0  0  0  0  0  0
    1.1610   -2.3473   -0.4303 C   0  0  0  0  0  0  0  0  0  0  0  0
    0.1050   -3.3576   -0.7273 C   0  0  0  0  0  0  0  0  0  0  0  0
    3.1362   -0.4573    0.1254 C   0  0  0  0  0  0  0  0  0  0  0  0
    1.8234   -1.7030   -1.4752 C   0  0  0  0  0  0  0  0  0  0  0  0
    1.4863   -2.0468    0.8924 C   0  0  0  0  0  0  0  0  0  0  0  0
   -3.3771   -1.9850   -0.1441 C   0  0  0  0  0  0  0  0  0  0  0  0
    2.8110   -0.7579   -1.1973 C   0  0  0  0  0  0  0  0  0  0  0  0
    2.4740   -1.1018    1.1703 C   0  0  0  0  0  0  0  0  0  0  0  0
   -2.0586   -2.6214    0.2598 C   0  0  0  0  0  0  0  0  0  0  0  0
   -3.3606   -0.4957   -0.0007 C   0  0  0  0  0  0  0  0  0  0  0  0
   -2.3587    1.4550    0.0028 C   0  0  0  0  0  0  0  0  0  0  0  0
    4.4800    0.8177    1.7774 C   0  0  0  0  0  0  0  0  0  0  0  0
    4.8385    1.1633   -0.6723 C   0  0  0  0  0  0  0  0  0  0  0  0
   -4.4517    0.2971    0.2875 C   0  0  0  0  0  0  0  0  0  0  0  0
   -1.2578    2.4368   -0.1119 C   0  0  0  0  0  0  0  0  0  0  0  0
   -1.3908    3.8458    0.0521 C   0  0  0  0  0  0  0  0  0  0  0  0
    0.0383    2.0696   -0.4005 C   0  0  0  0  0  0  0  0  0  0  0  0
   -0.1914    4.5020   -0.1169 C   0  0  0  0  0  0  0  0  0  0  0  0
    0.0935   -4.1373    0.0438 H   0  0  0  0  0  0  0  0  0  0  0  0
    0.3104   -3.8623   -1.6783 H   0  0  0  0  0  0  0  0  0  0  0  0
    1.5769   -1.9268   -2.5098 H   0  0  0  0  0  0  0  0  0  0  0  0
    0.9806   -2.5428    1.7162 H   0  0  0  0  0  0  0  0  0  0  0  0
   -4.1593   -2.4197    0.4897 H   0  0  0  0  0  0  0  0  0  0  0  0
   -3.6239   -2.2486   -1.1791 H   0  0  0  0  0  0  0  0  0  0  0  0
   -1.4963   -2.4222   -1.7384 H   0  0  0  0  0  0  0  0  0  0  0  0
    3.2958   -0.2833   -2.0446 H   0  0  0  0  0  0  0  0  0  0  0  0
    2.6906   -0.9033    2.2153 H   0  0  0  0  0  0  0  0  0  0  0  0
    3.6182    1.2250    2.3177 H   0  0  0  0  0  0  0  0  0  0  0  0
    4.8621   -0.0633    2.3050 H   0  0  0  0  0  0  0  0  0  0  0  0
    5.2670    1.5783    1.8300 H   0  0  0  0  0  0  0  0  0  0  0  0
    5.5802    1.8753   -0.2933 H   0  0  0  0  0  0  0  0  0  0  0  0
    5.3854    0.4430   -1.2909 H   0  0  0  0  0  0  0  0  0  0  0  0
    4.1493    1.7380   -1.3007 H   0  0  0  0  0  0  0  0  0  0  0  0
   -5.4781    0.0028    0.4548 H   0  0  0  0  0  0  0  0  0  0  0  0
   -2.3055    4.3776    0.2818 H   0  0  0  0  0  0  0  0  0  0  0  0
    0.4277    1.0780   -0.5776 H   0  0  0  0  0  0  0  0  0  0  0  0
   -0.0053    5.5645   -0.0490 H   0  0  0  0  0  0  0  0  0  0  0  0
  1 17  1  0  0  0  0
  1 20  1  0  0  0  0
  2 23  1  0  0  0  0
  2 24  1  0  0  0  0
  3 15  2  0  0  0  0
  4  8  1  0  0  0  0
  4 15  1  0  0  0  0
  4 31  1  0  0  0  0
  5  9  1  0  0  0  0
  5 18  1  0  0  0  0
  5 19  1  0  0  0  0
  6 16  1  0  0  0  0
  6 17  2  0  0  0  0
  7  8  1  0  0  0  0
  7 10  2  0  0  0  0
  7 11  1  0  0  0  0
  8 25  1  0  0  0  0
  8 26  1  0  0  0  0
  9 13  2  0  0  0  0
  9 14  1  0  0  0  0
 10 13  1  0  0  0  0
 10 27  1  0  0  0  0
 11 14  2  0  0  0  0
 11 28  1  0  0  0  0
 12 15  1  0  0  0  0
 12 16  1  0  0  0  0
 12 29  1  0  0  0  0
 12 30  1  0  0  0  0
 13 32  1  0  0  0  0
 14 33  1  0  0  0  0
 16 20  2  0  0  0  0
 17 21  1  0  0  0  0
 18 34  1  0  0  0  0
 18 35  1  0  0  0  0
 18 36  1  0  0  0  0
 19 37  1  0  0  0  0
 19 38  1  0  0  0  0
 19 39  1  0  0  0  0
 20 40  1  0  0  0  0
 21 22  1  0  0  0  0
 21 23  2  0  0  0  0
 22 24  2  0  0  0  0
 22 41  1  0  0  0  0
 23 42  1  0  0  0  0
 24 43  1  0  0  0  0
M  END
> <PUBCHEM_COMPOUND_CID>
17395429

> <PUBCHEM_CONFORMER_RMSD>
0.8

> <PUBCHEM_CONFORMER_DIVERSEORDER>
1
203
140
224
148
78
240
9
241
284
245
244
45
208
246
69
24
197
13
95
253
106
251
6
134
7
111
173
166
279
80
67
35
179
264
268
229
66
248
61
146
257
129
5
139
237
218
254
151
75
233
201
225
20
260
16
215
119
259
234
77
12
23
183
154
26
167
184
25
143
84
209
158
125
252
99
238
127
161
191
93
47
100
210
89
214
135
281
206
187
159
278
176
242
82
91
122
196
182
273
272
150
152
185
147
190
92
153
54
230
267
227
40
193
128
175
56
194
178
36
205
83
96
226
41
68
144
8
255
270
217
186
49
213
32
282
63
162
109
21
204
211
107
42
50
247
262
114
118
115
136
53
51
232
250
71
81
275
37
137
117
192
220
112
108
142
88
249
258
46
19
38
74
94
160
131
283
202
222
130
256
243
121
64
172
113
263
231
59
27
120
110
145
11
195
221
169
216
116
65
189
33
123
39
98
181
58
157
28
274
155
126
18
105
170
239
76
86
103
104
280
30
85
177
90
55
43
101
212
44
4
73
171
228
124
72
265
132
10
62
15
48
87
149
133
14
97
52
236
17
3
223
57
156
266
207
70
219
79
164
31
34
200
102
188
199
29
60
141
168
163
269
198
165
22
277
2
271
235
138
261
174
180
276

> <PUBCHEM_MMFF94_PARTIAL_CHARGES>
32
1 -0.08
10 -0.15
11 -0.15
12 0.24
13 -0.15
14 -0.15
15 0.57
16 0.05
17 0.38
18 0.37
19 0.37
2 -0.08
20 -0.11
22 -0.15
23 -0.11
24 -0.11
27 0.15
28 0.15
3 -0.57
31 0.37
32 0.15
33 0.15
4 -0.73
40 0.15
41 0.15
42 0.15
43 0.15
5 -0.84
6 -0.57
7 -0.14
8 0.44
9 0.1

> <PUBCHEM_EFFECTIVE_ROTOR_COUNT>
7

> <PUBCHEM_PHARMACOPHORE_FEATURES>
7
1 3 acceptor
1 4 donor
1 5 cation
1 6 acceptor
5 1 6 16 17 20 rings
5 2 21 22 23 24 rings
6 7 9 10 11 13 14 rings

> <PUBCHEM_HEAVY_ATOM_COUNT>
24

> <PUBCHEM_ATOM_DEF_STEREO_COUNT>
0

> <PUBCHEM_ATOM_UDEF_STEREO_COUNT>
0

> <PUBCHEM_BOND_DEF_STEREO_COUNT>
0

> <PUBCHEM_BOND_UDEF_STEREO_COUNT>
0

> <PUBCHEM_ISOTOPIC_ATOM_COUNT>
0

> <PUBCHEM_COMPONENT_COUNT>
1

> <PUBCHEM_CACTVS_TAUTO_COUNT>
2

> <PUBCHEM_CONFORMER_ID>
01096EE500000001

> <PUBCHEM_MMFF94_ENERGY>
51.7082

> <PUBCHEM_FEATURE_SELFOVERLAP>
35.52

> <PUBCHEM_SHAPE_FINGERPRINT>
10429389 16 17899663986778906734
10498660 4 18338233872802943583
10616163 171 18194964273466898996
10670039 82 18340760477915057814
10675989 125 17623308460429456517
1100329 8 18195526995654827669
11513181 2 17609770908205913060
12038231 1 17546161265246069717
12422481 6 17756451270053358792
12553582 1 18411693301206147805
13122387 1 18194400223985830845
13140716 1 18267863878610500233
13402501 40 18334016094537692512
13773456 30 17407138998193588620
14081887 123 18409738390938116352
14117953 113 18267871764239196820
14178342 30 17691976281229270376
151778 21 17040053906896989184
15297060 5 18189315970993014984
17093844 170 18265334082680238944
19930381 70 18123187063805618477
20715895 44 17483694655730243885
21796203 349 17910638065574205696
22113638 7 18337397024173788973
23559900 14 17761493990533034516
3052486 1 18340764832911753052
338550 245 17766277574968405052
3524813 1 18040443152653024474
463206 1 18269264677815168925
474144 1 17916854721613350412
6004065 56 18335998493282396157
9543594 6 17903923258117016112

> <PUBCHEM_SHAPE_MULTIPOLES>
480.8
7.9
5.6
1.17
2.47
2.71
0.18
1.35
1.48
-2.19
-0.52
1.13
-0.42
0.32

> <PUBCHEM_SHAPE_SELFOVERLAP>
999.737

> <PUBCHEM_SHAPE_VOLUME>
277

> <PUBCHEM_COORDINATE_TYPE>
2
5
10

$$$$

