5869
  -OEChem-06261200573D

 67 70  0     1  0  0  0  0  0999 V2000
    3.0405    1.7581   -0.4826 O   0  0  0  0  0  0  0  0  0  0  0  0
   -7.2592   -1.1266    1.9404 O   0  0  0  0  0  0  0  0  0  0  0  0
    3.9710   -0.1084    1.3127 O   0  0  0  0  0  0  0  0  0  0  0  0
    5.4594    1.6124    1.6904 O   0  0  0  0  0  0  0  0  0  0  0  0
    8.2535   -1.3638   -1.4467 O   0  0  0  0  0  0  0  0  0  0  0  0
    7.0699   -3.1964   -0.8121 O   0  0  0  0  0  0  0  0  0  0  0  0
   -2.4655    0.8459   -0.9436 C   0  0  1  0  0  0  0  0  0  0  0  0
   -1.3183    1.6062   -0.2685 C   0  0  1  0  0  0  0  0  0  0  0  0
   -2.8195   -0.4011   -0.0701 C   0  0  1  0  0  0  0  0  0  0  0  0
   -0.0436    0.7504   -0.1047 C   0  0  2  0  0  0  0  0  0  0  0  0
   -4.0222   -1.2160   -0.6728 C   0  0  2  0  0  0  0  0  0  0  0  0
   -1.5651   -1.2576    0.2500 C   0  0  0  0  0  0  0  0  0  0  0  0
   -0.3883   -0.4353    0.8064 C   0  0  0  0  0  0  0  0  0  0  0  0
   -5.2485   -0.2621   -0.8722 C   0  0  2  0  0  0  0  0  0  0  0  0
    0.8867    1.8073    0.5310 C   0  0  2  0  0  0  0  0  0  0  0  0
   -3.6895    1.7475   -1.1531 C   0  0  0  0  0  0  0  0  0  0  0  0
   -0.8014    2.8907   -0.9075 C   0  0  0  0  0  0  0  0  0  0  0  0
   -4.8874    0.9790   -1.7063 C   0  0  0  0  0  0  0  0  0  0  0  0
    0.5680    3.1067   -0.2383 C   0  0  0  0  0  0  0  0  0  0  0  0
   -4.4678   -2.3973    0.2384 C   0  0  0  0  0  0  0  0  0  0  0  0
    0.5407    0.2285   -1.4437 C   0  0  0  0  0  0  0  0  0  0  0  0
   -3.6392   -1.8519   -2.0354 C   0  0  0  0  0  0  0  0  0  0  0  0
   -5.9003    0.1714    0.4548 C   0  0  0  0  0  0  0  0  0  0  0  0
   -5.0493   -1.9703    1.5765 C   0  0  0  0  0  0  0  0  0  0  0  0
    2.3421    1.4589    0.4849 C   0  0  0  0  0  0  0  0  0  0  0  0
   -6.1875   -1.0103    1.3481 C   0  0  0  0  0  0  0  0  0  0  0  0
    2.8940    0.7239    1.6878 C   0  0  0  0  0  0  0  0  0  0  0  0
    5.2225    0.4600    1.3561 C   0  0  0  0  0  0  0  0  0  0  0  0
    6.2554   -0.5587    0.9246 C   0  0  0  0  0  0  0  0  0  0  0  0
    6.0835   -1.0100   -0.5208 C   0  0  0  0  0  0  0  0  0  0  0  0
    7.1655   -1.9811   -0.9237 C   0  0  0  0  0  0  0  0  0  0  0  0
   -2.1349    0.5195   -1.9347 H   0  0  0  0  0  0  0  0  0  0  0  0
   -1.6773    1.8898    0.7354 H   0  0  0  0  0  0  0  0  0  0  0  0
   -3.1473   -0.0060    0.9015 H   0  0  0  0  0  0  0  0  0  0  0  0
   -1.2338   -1.7988   -0.6414 H   0  0  0  0  0  0  0  0  0  0  0  0
   -1.8148   -2.0184    0.9975 H   0  0  0  0  0  0  0  0  0  0  0  0
    0.4784   -1.0947    0.9302 H   0  0  0  0  0  0  0  0  0  0  0  0
   -0.6544   -0.0772    1.8093 H   0  0  0  0  0  0  0  0  0  0  0  0
   -6.0182   -0.8164   -1.4293 H   0  0  0  0  0  0  0  0  0  0  0  0
    0.6147    1.9746    1.5826 H   0  0  0  0  0  0  0  0  0  0  0  0
   -3.9636    2.2344   -0.2097 H   0  0  0  0  0  0  0  0  0  0  0  0
   -3.4415    2.5547   -1.8527 H   0  0  0  0  0  0  0  0  0  0  0  0
   -1.4694    3.7391   -0.7273 H   0  0  0  0  0  0  0  0  0  0  0  0
   -0.6873    2.7826   -1.9917 H   0  0  0  0  0  0  0  0  0  0  0  0
   -4.6720    0.6776   -2.7383 H   0  0  0  0  0  0  0  0  0  0  0  0
   -5.7509    1.6530   -1.7669 H   0  0  0  0  0  0  0  0  0  0  0  0
    1.3123    3.3741   -0.9954 H   0  0  0  0  0  0  0  0  0  0  0  0
    0.5184    3.9477    0.4636 H   0  0  0  0  0  0  0  0  0  0  0  0
   -5.2378   -2.9770   -0.2912 H   0  0  0  0  0  0  0  0  0  0  0  0
   -3.6411   -3.0960    0.4082 H   0  0  0  0  0  0  0  0  0  0  0  0
    0.8564    1.0390   -2.1081 H   0  0  0  0  0  0  0  0  0  0  0  0
   -0.1707   -0.3812   -2.0068 H   0  0  0  0  0  0  0  0  0  0  0  0
    1.4169   -0.4051   -1.2636 H   0  0  0  0  0  0  0  0  0  0  0  0
   -3.2677   -1.1232   -2.7595 H   0  0  0  0  0  0  0  0  0  0  0  0
   -2.8684   -2.6205   -1.9173 H   0  0  0  0  0  0  0  0  0  0  0  0
   -4.5069   -2.3415   -2.4936 H   0  0  0  0  0  0  0  0  0  0  0  0
   -5.2727    0.8631    1.0248 H   0  0  0  0  0  0  0  0  0  0  0  0
   -6.8470    0.6842    0.2472 H   0  0  0  0  0  0  0  0  0  0  0  0
   -5.4294   -2.8488    2.1092 H   0  0  0  0  0  0  0  0  0  0  0  0
   -4.3026   -1.4893    2.2148 H   0  0  0  0  0  0  0  0  0  0  0  0
    3.1663    1.4480    2.4635 H   0  0  0  0  0  0  0  0  0  0  0  0
    2.1216    0.0737    2.1056 H   0  0  0  0  0  0  0  0  0  0  0  0
    6.2103   -1.4105    1.6133 H   0  0  0  0  0  0  0  0  0  0  0  0
    7.2459   -0.1073    1.0603 H   0  0  0  0  0  0  0  0  0  0  0  0
    5.1148   -1.5006   -0.6716 H   0  0  0  0  0  0  0  0  0  0  0  0
    6.0947   -0.1533   -1.2050 H   0  0  0  0  0  0  0  0  0  0  0  0
    8.9458   -2.0054   -1.7136 H   0  0  0  0  0  0  0  0  0  0  0  0
  1 25  2  0  0  0  0
  2 26  2  0  0  0  0
  3 27  1  0  0  0  0
  3 28  1  0  0  0  0
  4 28  2  0  0  0  0
  5 31  1  0  0  0  0
  5 67  1  0  0  0  0
  6 31  2  0  0  0  0
  7  8  1  0  0  0  0
  7  9  1  0  0  0  0
  7 16  1  0  0  0  0
  7 32  1  0  0  0  0
  8 10  1  0  0  0  0
  8 17  1  0  0  0  0
  8 33  1  0  0  0  0
  9 11  1  0  0  0  0
  9 12  1  0  0  0  0
  9 34  1  0  0  0  0
 10 13  1  0  0  0  0
 10 15  1  0  0  0  0
 10 21  1  0  0  0  0
 11 14  1  0  0  0  0
 11 20  1  0  0  0  0
 11 22  1  0  0  0  0
 12 13  1  0  0  0  0
 12 35  1  0  0  0  0
 12 36  1  0  0  0  0
 13 37  1  0  0  0  0
 13 38  1  0  0  0  0
 14 18  1  0  0  0  0
 14 23  1  0  0  0  0
 14 39  1  0  0  0  0
 15 19  1  0  0  0  0
 15 25  1  0  0  0  0
 15 40  1  0  0  0  0
 16 18  1  0  0  0  0
 16 41  1  0  0  0  0
 16 42  1  0  0  0  0
 17 19  1  0  0  0  0
 17 43  1  0  0  0  0
 17 44  1  0  0  0  0
 18 45  1  0  0  0  0
 18 46  1  0  0  0  0
 19 47  1  0  0  0  0
 19 48  1  0  0  0  0
 20 24  1  0  0  0  0
 20 49  1  0  0  0  0
 20 50  1  0  0  0  0
 21 51  1  0  0  0  0
 21 52  1  0  0  0  0
 21 53  1  0  0  0  0
 22 54  1  0  0  0  0
 22 55  1  0  0  0  0
 22 56  1  0  0  0  0
 23 26  1  0  0  0  0
 23 57  1  0  0  0  0
 23 58  1  0  0  0  0
 24 26  1  0  0  0  0
 24 59  1  0  0  0  0
 24 60  1  0  0  0  0
 25 27  1  0  0  0  0
 27 61  1  0  0  0  0
 27 62  1  0  0  0  0
 28 29  1  0  0  0  0
 29 30  1  0  0  0  0
 29 63  1  0  0  0  0
 29 64  1  0  0  0  0
 30 31  1  0  0  0  0
 30 65  1  0  0  0  0
 30 66  1  0  0  0  0
M  END
> <PUBCHEM_COMPOUND_CID>
5869

> <PUBCHEM_CONFORMER_RMSD>
1

> <PUBCHEM_CONFORMER_DIVERSEORDER>
53
67
46
72
27
37
57
59
74
44
76
5
20
61
45
62
32
9
25
55
39
47
38
75
23
28
11
64
34
54
65
31
2
19
6
52
69
42
41
14
12
1
36
43
26
29
71
60
18
13
73
10
70
56
50
7
35
3
30
21
16
48
33
17
49
68
66
8
22
51
40
58
63
4
15
24

> <PUBCHEM_MMFF94_PARTIAL_CHARGES>
17
1 -0.57
15 0.06
2 -0.57
23 0.06
24 0.06
25 0.45
26 0.45
27 0.34
28 0.66
29 0.06
3 -0.43
30 0.06
31 0.66
4 -0.57
5 -0.65
6 -0.57
67 0.5

> <PUBCHEM_EFFECTIVE_ROTOR_COUNT>
9

> <PUBCHEM_PHARMACOPHORE_FEATURES>
10
1 1 acceptor
1 2 acceptor
1 4 acceptor
1 5 acceptor
1 6 acceptor
3 5 6 31 anion
5 8 10 15 17 19 rings
6 11 14 20 23 24 26 rings
6 7 8 9 10 12 13 rings
6 7 9 11 14 16 18 rings

> <PUBCHEM_HEAVY_ATOM_COUNT>
31

> <PUBCHEM_ATOM_DEF_STEREO_COUNT>
7

> <PUBCHEM_ATOM_UDEF_STEREO_COUNT>
0

> <PUBCHEM_BOND_DEF_STEREO_COUNT>
0

> <PUBCHEM_BOND_UDEF_STEREO_COUNT>
0

> <PUBCHEM_ISOTOPIC_ATOM_COUNT>
0

> <PUBCHEM_COMPONENT_COUNT>
1

> <PUBCHEM_CACTVS_TAUTO_COUNT>
9

> <PUBCHEM_CONFORMER_ID>
000016ED00000035

> <PUBCHEM_MMFF94_ENERGY>
86.1421

> <PUBCHEM_FEATURE_SELFOVERLAP>
50.935

> <PUBCHEM_SHAPE_FINGERPRINT>
10 15 7925619021786123534
11331351 85 18260546718769516128
117089 54 18199177387250435099
11961588 58 11095884856742083640
12166972 35 17060618871655631732
12422481 6 17894918407934254678
13009979 54 17489871510323417357
13533116 47 17749114370720957840
13583140 156 15285917993097629607
13673619 4 17274826810022801537
13690498 29 18060420230862560300
13782708 43 18343306928968836866
14123256 34 18343018891556359168
14202776 33 15697728111370112999
14420673 8 18412259528483340531
14856354 85 17418370286464901315
14955137 171 18411417276516627113
15131766 46 15577281942897540288
15183329 4 16702304563956746622
15352257 5 18261111902859772710
18927931 339 18131639963455824599
20105231 36 18131627889891780331
20511986 3 6627475086059992029
21130935 74 17895761694513956034
21150785 3 15052012355643102018
21267235 1 18201719543984894705
21279426 13 18272944811899609829
21682296 61 18335987497559177359
2303208 19 18409454682841909032
23081809 10 16081377306357221512
23559900 14 18411708668609779980
23569917 315 18188772731120243927
23569943 247 17968663842415918534
24771750 20 17625814973537646236
2748736 6 9799694796724210646
3004659 81 17988925566020719628
312425 54 17240489065823862218
335352 9 18201171992343856701
3383291 50 18201723920425155963
4107672 100 17632017562724582821
437815 12 18260271845689691824
439807 62 18337388361905722022
44880168 125 18260554411082037838
5104073 3 18201170853618958289
9896288 288 18264485277617221217
999808 66 18260829323859981286

> <PUBCHEM_SHAPE_MULTIPOLES>
602.75
19.79
2.94
1.76
26.45
0.38
0.09
-15.62
0.8
1.19
-0.63
-0.4
-0.42
3.43

> <PUBCHEM_SHAPE_SELFOVERLAP>
1268.61

> <PUBCHEM_SHAPE_VOLUME>
334.9

> <PUBCHEM_COORDINATE_TYPE>
2
5
10

$$$$

