47205026
  -OEChem-06241222572D

 36 37  0     0  0  0  0  0  0999 V2000
    2.8660    1.7953    0.0000 O   0  0  0  0  0  0  0  0  0  0  0  0
    2.8660   -4.2047    0.0000 O   0  0  0  0  0  0  0  0  0  0  0  0
    4.5981    1.7953    0.0000 N   0  0  0  0  0  0  0  0  0  0  0  0
    5.5686    4.2898    0.0000 N   0  0  0  0  0  0  0  0  0  0  0  0
    6.5468    4.4977    0.0000 N   0  0  0  0  0  0  0  0  0  0  0  0
    2.8660   -0.2047    0.0000 C   0  0  0  0  0  0  0  0  0  0  0  0
    3.7320    0.2953    0.0000 C   0  0  0  0  0  0  0  0  0  0  0  0
    2.8660   -1.2047    0.0000 C   0  0  0  0  0  0  0  0  0  0  0  0
    3.7320    1.2953    0.0000 C   0  0  0  0  0  0  0  0  0  0  0  0
    4.5981    2.7953    0.0000 C   0  0  0  0  0  0  0  0  0  0  0  0
    2.0000   -1.7047    0.0000 C   0  0  0  0  0  0  0  0  0  0  0  0
    3.7320   -1.7047    0.0000 C   0  0  0  0  0  0  0  0  0  0  0  0
    5.4641    3.2953    0.0000 C   0  0  0  0  0  0  0  0  0  0  0  0
    2.0000   -2.7047    0.0000 C   0  0  0  0  0  0  0  0  0  0  0  0
    3.7320   -2.7047    0.0000 C   0  0  0  0  0  0  0  0  0  0  0  0
    2.8660   -3.2047    0.0000 C   0  0  0  0  0  0  0  0  0  0  0  0
    6.3776    2.8886    0.0000 C   0  0  0  0  0  0  0  0  0  0  0  0
    7.0468    3.6317    0.0000 C   0  0  0  0  0  0  0  0  0  0  0  0
    2.0000   -4.7047    0.0000 C   0  0  0  0  0  0  0  0  0  0  0  0
    2.6540    0.3779    0.0000 H   0  0  0  0  0  0  0  0  0  0  0  0
    2.2554   -0.3124    0.0000 H   0  0  0  0  0  0  0  0  0  0  0  0
    3.9441   -0.2873    0.0000 H   0  0  0  0  0  0  0  0  0  0  0  0
    4.3426    0.4030    0.0000 H   0  0  0  0  0  0  0  0  0  0  0  0
    4.3860    3.3779    0.0000 H   0  0  0  0  0  0  0  0  0  0  0  0
    3.9875    2.6876    0.0000 H   0  0  0  0  0  0  0  0  0  0  0  0
    5.1350    1.4853    0.0000 H   0  0  0  0  0  0  0  0  0  0  0  0
    1.4631   -1.3947    0.0000 H   0  0  0  0  0  0  0  0  0  0  0  0
    4.2690   -1.3947    0.0000 H   0  0  0  0  0  0  0  0  0  0  0  0
    1.4631   -3.0147    0.0000 H   0  0  0  0  0  0  0  0  0  0  0  0
    4.2690   -3.0147    0.0000 H   0  0  0  0  0  0  0  0  0  0  0  0
    6.5066    2.2821    0.0000 H   0  0  0  0  0  0  0  0  0  0  0  0
    5.1079    4.7047    0.0000 H   0  0  0  0  0  0  0  0  0  0  0  0
    7.6634    3.5669    0.0000 H   0  0  0  0  0  0  0  0  0  0  0  0
    1.6900   -4.1678    0.0000 H   0  0  0  0  0  0  0  0  0  0  0  0
    1.4631   -5.0147    0.0000 H   0  0  0  0  0  0  0  0  0  0  0  0
    2.3100   -5.2416    0.0000 H   0  0  0  0  0  0  0  0  0  0  0  0
  1  9  2  0  0  0  0
  2 16  1  0  0  0  0
  2 19  1  0  0  0  0
  3  9  1  0  0  0  0
  3 10  1  0  0  0  0
  3 26  1  0  0  0  0
  4  5  1  0  0  0  0
  4 13  1  0  0  0  0
  4 32  1  0  0  0  0
  5 18  2  0  0  0  0
  6  7  1  0  0  0  0
  6  8  1  0  0  0  0
  6 20  1  0  0  0  0
  6 21  1  0  0  0  0
  7  9  1  0  0  0  0
  7 22  1  0  0  0  0
  7 23  1  0  0  0  0
  8 11  2  0  0  0  0
  8 12  1  0  0  0  0
 10 13  1  0  0  0  0
 10 24  1  0  0  0  0
 10 25  1  0  0  0  0
 11 14  1  0  0  0  0
 11 27  1  0  0  0  0
 12 15  2  0  0  0  0
 12 28  1  0  0  0  0
 13 17  2  0  0  0  0
 14 16  2  0  0  0  0
 14 29  1  0  0  0  0
 15 16  1  0  0  0  0
 15 30  1  0  0  0  0
 17 18  1  0  0  0  0
 17 31  1  0  0  0  0
 18 33  1  0  0  0  0
 19 34  1  0  0  0  0
 19 35  1  0  0  0  0
 19 36  1  0  0  0  0
M  END
> <PUBCHEM_COMPOUND_CID>
47205026

> <PUBCHEM_COMPOUND_CANONICALIZED>
1

> <PUBCHEM_CACTVS_COMPLEXITY>
278

> <PUBCHEM_CACTVS_HBOND_ACCEPTOR>
3

> <PUBCHEM_CACTVS_HBOND_DONOR>
2

> <PUBCHEM_CACTVS_ROTATABLE_BOND>
6

> <PUBCHEM_CACTVS_SUBSKEYS>
AAADceBzMAAAAAAAAAAAAAAAAAAAAWAAAAAwAAAAAAAAAAABwAAAHgAYAAAADAzBngY+hpLjBACqAzV3UACSDAAgogAYuaE+bJgMZrKE8duUtChk3hGI6AeYyKCOIAAAAAAAAABAAAAAAAAAAAAAAAAAAA==

> <PUBCHEM_IUPAC_OPENEYE_NAME>
3-(4-methoxyphenyl)-N-(1H-pyrazol-5-ylmethyl)propanamide

> <PUBCHEM_IUPAC_CAS_NAME>
3-(4-methoxyphenyl)-N-(1H-pyrazol-5-ylmethyl)propanamide

> <PUBCHEM_IUPAC_NAME>
3-(4-methoxyphenyl)-N-(1H-pyrazol-5-ylmethyl)propanamide

> <PUBCHEM_IUPAC_SYSTEMATIC_NAME>
3-(4-methoxyphenyl)-N-(1H-pyrazol-5-ylmethyl)propanamide

> <PUBCHEM_IUPAC_TRADITIONAL_NAME>
3-(4-methoxyphenyl)-N-(1H-pyrazol-5-ylmethyl)propionamide

> <PUBCHEM_IUPAC_INCHI>
InChI=1S/C14H17N3O2/c1-19-13-5-2-11(3-6-13)4-7-14(18)15-10-12-8-9-16-17-12/h2-3,5-6,8-9H,4,7,10H2,1H3,(H,15,18)(H,16,17)

> <PUBCHEM_IUPAC_INCHIKEY>
IKWXTCWAHQSHFE-UHFFFAOYSA-N

> <PUBCHEM_XLOGP3_AA>
1.2

> <PUBCHEM_EXACT_MASS>
259.132077

> <PUBCHEM_MOLECULAR_FORMULA>
C14H17N3O2

> <PUBCHEM_MOLECULAR_WEIGHT>
259.30368

> <PUBCHEM_OPENEYE_CAN_SMILES>
COC1=CC=C(C=C1)CCC(=O)NCC2=CC=NN2

> <PUBCHEM_OPENEYE_ISO_SMILES>
COC1=CC=C(C=C1)CCC(=O)NCC2=CC=NN2

> <PUBCHEM_CACTVS_TPSA>
67

> <PUBCHEM_MONOISOTOPIC_WEIGHT>
259.132077

> <PUBCHEM_TOTAL_CHARGE>
0

> <PUBCHEM_HEAVY_ATOM_COUNT>
19

> <PUBCHEM_ATOM_DEF_STEREO_COUNT>
0

> <PUBCHEM_ATOM_UDEF_STEREO_COUNT>
0

> <PUBCHEM_BOND_DEF_STEREO_COUNT>
0

> <PUBCHEM_BOND_UDEF_STEREO_COUNT>
0

> <PUBCHEM_ISOTOPIC_ATOM_COUNT>
0

> <PUBCHEM_COMPONENT_COUNT>
1

> <PUBCHEM_CACTVS_TAUTO_COUNT>
4

> <PUBCHEM_COORDINATE_TYPE>
1
5
255

> <PUBCHEM_BONDANNOTATIONS>
11  14  8
12  15  8
13  17  8
14  16  8
15  16  8
17  18  8
4  13  8
4  5  8
5  18  8
8  11  8
8  12  8

$$$$

