5986
  -OEChem-06261201023D

 58 60  0     1  0  0  0  0  0999 V2000
    3.5411   -1.6445    1.3781 O   0  0  0  0  0  0  0  0  0  0  0  0
   -3.9854    0.0601   -1.3912 O   0  0  0  0  0  0  0  0  0  0  0  0
   -2.9050   -1.9342   -1.5320 O   0  0  0  0  0  0  0  0  0  0  0  0
    0.0771   -1.6269    0.3539 N   0  0  0  0  0  0  0  0  0  0  0  0
   -2.5983   -0.5362    0.3631 N   0  0  0  0  0  0  0  0  0  0  0  0
    2.9324   -0.8077    0.3833 C   0  0  0  0  0  0  0  0  0  0  0  0
    2.3118   -1.6919   -0.7230 C   0  0  0  0  0  0  0  0  0  0  0  0
    1.8007   -0.0086    1.0673 C   0  0  0  0  0  0  0  0  0  0  0  0
    1.0954   -2.4954   -0.2453 C   0  0  0  0  0  0  0  0  0  0  0  0
    0.6205   -0.8873    1.4982 C   0  0  0  0  0  0  0  0  0  0  0  0
   -1.0915   -2.4088    0.7567 C   0  0  0  0  0  0  0  0  0  0  0  0
    4.0700    0.0424   -0.1848 C   0  0  0  0  0  0  0  0  0  0  0  0
   -2.2094   -1.5329    1.3368 C   0  0  2  0  0  0  0  0  0  0  0  0
   -3.4351   -2.3327    1.7719 C   0  0  0  0  0  0  0  0  0  0  0  0
    5.1458   -0.5723   -0.8240 C   0  0  0  0  0  0  0  0  0  0  0  0
    4.0297    1.4305   -0.0622 C   0  0  0  0  0  0  0  0  0  0  0  0
   -2.4279    0.8775    0.6798 C   0  0  0  0  0  0  0  0  0  0  0  0
    6.1833    0.2031   -1.3419 C   0  0  0  0  0  0  0  0  0  0  0  0
    5.0672    2.2058   -0.5801 C   0  0  0  0  0  0  0  0  0  0  0  0
   -3.1447   -0.9084   -0.8995 C   0  0  0  0  0  0  0  0  0  0  0  0
    6.1440    1.5921   -1.2197 C   0  0  0  0  0  0  0  0  0  0  0  0
   -2.1895    1.7346   -0.3546 C   0  0  0  0  0  0  0  0  0  0  0  0
   -2.5187    1.2497    1.9893 C   0  0  0  0  0  0  0  0  0  0  0  0
   -2.0270    3.0865   -0.0521 C   0  0  0  0  0  0  0  0  0  0  0  0
   -2.3562    2.6016    2.2916 C   0  0  0  0  0  0  0  0  0  0  0  0
   -2.1103    3.5200    1.2709 C   0  0  0  0  0  0  0  0  0  0  0  0
   -4.5652   -0.1908   -2.6774 C   0  0  0  0  0  0  0  0  0  0  0  0
   -5.4550    0.9748   -3.0531 C   0  0  0  0  0  0  0  0  0  0  0  0
    3.0449   -2.4134   -1.1038 H   0  0  0  0  0  0  0  0  0  0  0  0
    2.0092   -1.0629   -1.5715 H   0  0  0  0  0  0  0  0  0  0  0  0
    1.4064    0.7573    0.3858 H   0  0  0  0  0  0  0  0  0  0  0  0
    2.1830    0.5012    1.9614 H   0  0  0  0  0  0  0  0  0  0  0  0
    0.6728   -3.0098   -1.1175 H   0  0  0  0  0  0  0  0  0  0  0  0
    1.4133   -3.2751    0.4586 H   0  0  0  0  0  0  0  0  0  0  0  0
    0.9265   -1.5687    2.3021 H   0  0  0  0  0  0  0  0  0  0  0  0
   -0.0963   -0.1908    1.9325 H   0  0  0  0  0  0  0  0  0  0  0  0
   -1.4555   -3.0045   -0.0862 H   0  0  0  0  0  0  0  0  0  0  0  0
   -0.8018   -3.1456    1.5200 H   0  0  0  0  0  0  0  0  0  0  0  0
   -1.8345   -1.0945    2.2619 H   0  0  0  0  0  0  0  0  0  0  0  0
    2.8856   -2.2820    1.7029 H   0  0  0  0  0  0  0  0  0  0  0  0
   -4.2135   -1.6737    2.1720 H   0  0  0  0  0  0  0  0  0  0  0  0
   -3.1671   -3.0518    2.5534 H   0  0  0  0  0  0  0  0  0  0  0  0
   -3.8718   -2.8965    0.9407 H   0  0  0  0  0  0  0  0  0  0  0  0
    5.2041   -1.6527   -0.9194 H   0  0  0  0  0  0  0  0  0  0  0  0
    3.2219    1.9579    0.4325 H   0  0  0  0  0  0  0  0  0  0  0  0
    7.0235   -0.2747   -1.8373 H   0  0  0  0  0  0  0  0  0  0  0  0
    5.0384    3.2873   -0.4836 H   0  0  0  0  0  0  0  0  0  0  0  0
    6.9525    2.1956   -1.6218 H   0  0  0  0  0  0  0  0  0  0  0  0
   -2.0514    1.4275   -1.3855 H   0  0  0  0  0  0  0  0  0  0  0  0
   -2.7644    0.5831    2.8069 H   0  0  0  0  0  0  0  0  0  0  0  0
   -1.8208    3.7998   -0.8448 H   0  0  0  0  0  0  0  0  0  0  0  0
   -2.4330    2.9418    3.3203 H   0  0  0  0  0  0  0  0  0  0  0  0
   -1.9830    4.5725    1.5065 H   0  0  0  0  0  0  0  0  0  0  0  0
   -5.1582   -1.1112   -2.6365 H   0  0  0  0  0  0  0  0  0  0  0  0
   -3.7679   -0.3022   -3.4205 H   0  0  0  0  0  0  0  0  0  0  0  0
   -4.8792    1.9059   -3.0785 H   0  0  0  0  0  0  0  0  0  0  0  0
   -6.2462    1.1111   -2.3083 H   0  0  0  0  0  0  0  0  0  0  0  0
   -5.9148    0.8165   -4.0325 H   0  0  0  0  0  0  0  0  0  0  0  0
  1  6  1  0  0  0  0
  1 40  1  0  0  0  0
  2 20  1  0  0  0  0
  2 27  1  0  0  0  0
  3 20  2  0  0  0  0
  4  9  1  0  0  0  0
  4 10  1  0  0  0  0
  4 11  1  0  0  0  0
  5 13  1  0  0  0  0
  5 17  1  0  0  0  0
  5 20  1  0  0  0  0
  6  7  1  0  0  0  0
  6  8  1  0  0  0  0
  6 12  1  0  0  0  0
  7  9  1  0  0  0  0
  7 29  1  0  0  0  0
  7 30  1  0  0  0  0
  8 10  1  0  0  0  0
  8 31  1  0  0  0  0
  8 32  1  0  0  0  0
  9 33  1  0  0  0  0
  9 34  1  0  0  0  0
 10 35  1  0  0  0  0
 10 36  1  0  0  0  0
 11 13  1  0  0  0  0
 11 37  1  0  0  0  0
 11 38  1  0  0  0  0
 12 15  2  0  0  0  0
 12 16  1  0  0  0  0
 13 14  1  0  0  0  0
 13 39  1  0  0  0  0
 14 41  1  0  0  0  0
 14 42  1  0  0  0  0
 14 43  1  0  0  0  0
 15 18  1  0  0  0  0
 15 44  1  0  0  0  0
 16 19  2  0  0  0  0
 16 45  1  0  0  0  0
 17 22  2  0  0  0  0
 17 23  1  0  0  0  0
 18 21  2  0  0  0  0
 18 46  1  0  0  0  0
 19 21  1  0  0  0  0
 19 47  1  0  0  0  0
 21 48  1  0  0  0  0
 22 24  1  0  0  0  0
 22 49  1  0  0  0  0
 23 25  2  0  0  0  0
 23 50  1  0  0  0  0
 24 26  2  0  0  0  0
 24 51  1  0  0  0  0
 25 26  1  0  0  0  0
 25 52  1  0  0  0  0
 26 53  1  0  0  0  0
 27 28  1  0  0  0  0
 27 54  1  0  0  0  0
 27 55  1  0  0  0  0
 28 56  1  0  0  0  0
 28 57  1  0  0  0  0
 28 58  1  0  0  0  0
M  END
> <PUBCHEM_COMPOUND_CID>
5986

> <PUBCHEM_CONFORMER_RMSD>
1

> <PUBCHEM_CONFORMER_DIVERSEORDER>
5
62
130
100
92
61
131
94
63
56
69
44
43
114
82
79
46
12
52
127
80
90
29
18
113
110
49
108
120
22
138
86
67
98
81
106
105
129
116
7
126
128
14
54
140
23
142
143
133
59
48
24
25
125
74
50
88
145
119
136
132
117
21
41
58
38
34
102
20
13
65
45
36
137
124
32
27
122
15
31
72
121
78
4
2
112
134
77
139
96
76
11
3
53
66
9
8
55
135
33
111
91
68
19
70
104
51
95
107
118
16
37
26
75
87
1
30
101
123
10
64
109
93
103
47
39
57
28
89
6
115
73
60
42
83
40
35
141
85
99
17
97
71
84
144

> <PUBCHEM_MMFF94_PARTIAL_CHARGES>
35
1 -0.68
10 0.27
11 0.27
12 -0.14
13 0.3
15 -0.15
16 -0.15
17 0.12
18 -0.15
19 -0.15
2 -0.43
20 0.78
21 -0.15
22 -0.15
23 -0.15
24 -0.15
25 -0.15
26 -0.15
27 0.28
3 -0.57
4 -0.81
40 0.4
44 0.15
45 0.15
46 0.15
47 0.15
48 0.15
49 0.15
5 -0.48
50 0.15
51 0.15
52 0.15
53 0.15
6 0.42
9 0.27

> <PUBCHEM_EFFECTIVE_ROTOR_COUNT>
9.2

> <PUBCHEM_PHARMACOPHORE_FEATURES>
7
1 1 acceptor
1 1 donor
1 3 acceptor
1 4 cation
6 12 15 16 18 19 21 rings
6 17 22 23 24 25 26 rings
6 4 6 7 8 9 10 rings

> <PUBCHEM_HEAVY_ATOM_COUNT>
28

> <PUBCHEM_ATOM_DEF_STEREO_COUNT>
0

> <PUBCHEM_ATOM_UDEF_STEREO_COUNT>
1

> <PUBCHEM_BOND_DEF_STEREO_COUNT>
0

> <PUBCHEM_BOND_UDEF_STEREO_COUNT>
0

> <PUBCHEM_ISOTOPIC_ATOM_COUNT>
0

> <PUBCHEM_COMPONENT_COUNT>
1

> <PUBCHEM_CACTVS_TAUTO_COUNT>
1

> <PUBCHEM_CONFORMER_ID>
0000176200000005

> <PUBCHEM_MMFF94_ENERGY>
93.8691

> <PUBCHEM_FEATURE_SELFOVERLAP>
35.52

> <PUBCHEM_SHAPE_FINGERPRINT>
10366900 7 18259992573545660306
10498660 4 18202005408576209796
10670039 82 18338222800931168228
10871710 139 18337387240402305937
11477941 20 17894912884934171284
11513181 2 17896591976591257646
11796584 16 5472599753843926558
12788726 201 18262813963886308833
13103583 49 11671776062138051892
13583140 156 16487246669348215296
13627167 48 17914873376381047980
13911987 19 18337958896338956023
13994607 96 18341326726029094855
14020679 6 14620796015695942069
14251751 93 17967809466420237508
14395042 70 15147952678572977137
14713325 29 18267000835118648362
14910302 57 16298681515821331974
15183329 4 18343292688002210174
15324884 4 17536335647220426603
15475509 8 17168726184585022557
16994733 274 16558207002917291101
17492 54 18271261473131077301
17809404 112 16630520777956698084
19438510 23 16414928551047163053
19958102 18 17385439908775651438
20642791 239 18341910567109801029
20775438 99 16739781245558303055
21033648 144 18202843262396315790
21033648 29 16128654171921401348
21095088 737 18411704278820770357
21864079 5 18340477988977983208
221357 26 18187636973713634992
22907989 373 18408324406141820019
22956985 138 15897817950458263034
3552219 110 17341493442477812211
376196 1 15766712660882333855
469060 322 16701440283176384555
508706 21 18341607136028216732
6371009 1 18337402578110055232
7288768 16 17915720137081707657
9981440 41 16056885744977852067

> <PUBCHEM_SHAPE_MULTIPOLES>
548.66
12.63
3.47
2.37
15.4
1.53
-1.02
4.18
-8.75
-1.92
1.35
-4.22
0.44
-0.89

> <PUBCHEM_SHAPE_SELFOVERLAP>
1154.974

> <PUBCHEM_SHAPE_VOLUME>
306.7

> <PUBCHEM_COORDINATE_TYPE>
2
5
10

$$$$

