17395307
  -OEChem-06241222493D

 40 42  0     0  0  0  0  0  0999 V2000
   -0.5498   -0.3621    0.4826 S   0  0  0  0  0  0  0  0  0  0  0  0
   -7.2070    0.8248   -1.3359 F   0  0  0  0  0  0  0  0  0  0  0  0
   -6.6223    1.6710    0.5736 F   0  0  0  0  0  0  0  0  0  0  0  0
   -5.4822    2.1438   -1.2168 F   0  0  0  0  0  0  0  0  0  0  0  0
    3.9590    2.9163    0.2566 O   0  0  0  0  0  0  0  0  0  0  0  0
    4.3978    0.6246   -0.0089 N   0  0  0  0  0  0  0  0  0  0  0  0
    2.7678   -0.9459    0.7510 N   0  0  0  0  0  0  0  0  0  0  0  0
    3.9122   -0.6735    0.1980 C   0  0  0  0  0  0  0  0  0  0  0  0
    1.9958    0.1144    1.1544 C   0  0  0  0  0  0  0  0  0  0  0  0
    0.6874   -0.2613    1.7870 C   0  0  0  0  0  0  0  0  0  0  0  0
   -3.2277   -0.9824    0.6675 C   0  0  0  0  0  0  0  0  0  0  0  0
   -1.9813   -0.8155    1.4924 C   0  0  0  0  0  0  0  0  0  0  0  0
    5.6351    0.8308   -0.6100 C   0  0  0  0  0  0  0  0  0  0  0  0
    3.6453    1.7347    0.3850 C   0  0  0  0  0  0  0  0  0  0  0  0
    6.4162   -0.1816   -1.0164 C   0  0  0  0  0  0  0  0  0  0  0  0
    2.3469    1.3998    1.0139 C   0  0  0  0  0  0  0  0  0  0  0  0
    4.7807   -1.7984   -0.2538 C   0  0  0  0  0  0  0  0  0  0  0  0
    5.9610   -1.5384   -0.8255 C   0  0  0  0  0  0  0  0  0  0  0  0
   -4.0652    0.1095    0.4402 C   0  0  0  0  0  0  0  0  0  0  0  0
   -5.2204   -0.0452   -0.3261 C   0  0  0  0  0  0  0  0  0  0  0  0
   -3.5453   -2.2292    0.1288 C   0  0  0  0  0  0  0  0  0  0  0  0
    7.7498    0.0179   -1.6653 C   0  0  0  0  0  0  0  0  0  0  0  0
   -5.5380   -1.2921   -0.8650 C   0  0  0  0  0  0  0  0  0  0  0  0
   -4.7005   -2.3841   -0.6375 C   0  0  0  0  0  0  0  0  0  0  0  0
   -6.1156    1.1222   -0.5700 C   0  0  0  0  0  0  0  0  0  0  0  0
    0.3811    0.4900    2.5234 H   0  0  0  0  0  0  0  0  0  0  0  0
    0.7713   -1.2215    2.3078 H   0  0  0  0  0  0  0  0  0  0  0  0
   -2.1447   -0.0451    2.2550 H   0  0  0  0  0  0  0  0  0  0  0  0
   -1.7657   -1.7480    2.0269 H   0  0  0  0  0  0  0  0  0  0  0  0
    5.9495    1.8611   -0.7397 H   0  0  0  0  0  0  0  0  0  0  0  0
    1.7157    2.2173    1.3429 H   0  0  0  0  0  0  0  0  0  0  0  0
    4.4317   -2.8139   -0.1070 H   0  0  0  0  0  0  0  0  0  0  0  0
    6.5968   -2.3532   -1.1561 H   0  0  0  0  0  0  0  0  0  0  0  0
   -3.8199    1.0832    0.8579 H   0  0  0  0  0  0  0  0  0  0  0  0
   -2.9005   -3.0877    0.2975 H   0  0  0  0  0  0  0  0  0  0  0  0
    7.7587   -0.4185   -2.6699 H   0  0  0  0  0  0  0  0  0  0  0  0
    8.5408   -0.4558   -1.0741 H   0  0  0  0  0  0  0  0  0  0  0  0
    8.0007    1.0796   -1.7633 H   0  0  0  0  0  0  0  0  0  0  0  0
   -6.4331   -1.4325   -1.4646 H   0  0  0  0  0  0  0  0  0  0  0  0
   -4.9475   -3.3548   -1.0573 H   0  0  0  0  0  0  0  0  0  0  0  0
  1 10  1  0  0  0  0
  1 12  1  0  0  0  0
  2 25  1  0  0  0  0
  3 25  1  0  0  0  0
  4 25  1  0  0  0  0
  5 14  2  0  0  0  0
  6  8  1  0  0  0  0
  6 13  1  0  0  0  0
  6 14  1  0  0  0  0
  7  8  2  0  0  0  0
  7  9  1  0  0  0  0
  8 17  1  0  0  0  0
  9 10  1  0  0  0  0
  9 16  2  0  0  0  0
 10 26  1  0  0  0  0
 10 27  1  0  0  0  0
 11 12  1  0  0  0  0
 11 19  2  0  0  0  0
 11 21  1  0  0  0  0
 12 28  1  0  0  0  0
 12 29  1  0  0  0  0
 13 15  2  0  0  0  0
 13 30  1  0  0  0  0
 14 16  1  0  0  0  0
 15 18  1  0  0  0  0
 15 22  1  0  0  0  0
 16 31  1  0  0  0  0
 17 18  2  0  0  0  0
 17 32  1  0  0  0  0
 18 33  1  0  0  0  0
 19 20  1  0  0  0  0
 19 34  1  0  0  0  0
 20 23  2  0  0  0  0
 20 25  1  0  0  0  0
 21 24  2  0  0  0  0
 21 35  1  0  0  0  0
 22 36  1  0  0  0  0
 22 37  1  0  0  0  0
 22 38  1  0  0  0  0
 23 24  1  0  0  0  0
 23 39  1  0  0  0  0
 24 40  1  0  0  0  0
M  END
> <PUBCHEM_COMPOUND_CID>
17395307

> <PUBCHEM_CONFORMER_RMSD>
0.8

> <PUBCHEM_CONFORMER_DIVERSEORDER>
1
62
141
95
170
53
76
169
172
27
121
26
9
77
174
166
52
84
49
99
123
116
153
72
28
134
70
117
13
130
75
114
173
30
146
177
23
164
104
135
156
59
157
175
102
3
151
64
113
80
133
4
165
101
129
155
142
154
109
137
5
122
11
60
2
66
100
41
145
63
128
92
144
120
138
124
78
79
14
96
51
148
86
74
29
50
159
125
82
35
90
25
150
106
12
132
22
15
110
171
57
19
69
44
163
58
107
8
97
103
147
143
115
33
37
94
152
93
34
36
176
56
55
88
118
47
119
39
168
160
20
68
10
139
61
71
16
85
112
127
48
91
105
81
18
46
43
136
131
54
6
42
83
40
17
162
65
111
158
45
98
161
89
140
149
21
108
67
126
167
38
7
24
73
87
31
32

> <PUBCHEM_MMFF94_PARTIAL_CHARGES>
33
1 -0.46
10 0.37
11 -0.14
12 0.37
13 -0.04
14 0.62
15 -0.14
16 -0.14
17 -0.14
18 -0.15
19 -0.15
2 -0.34
20 -0.14
21 -0.15
22 0.14
23 -0.15
24 -0.15
25 1.16
3 -0.34
30 0.15
31 0.15
32 0.15
33 0.15
34 0.15
35 0.15
39 0.15
4 -0.34
40 0.15
5 -0.57
6 -0.23
7 -0.62
8 0.5
9 0.03

> <PUBCHEM_EFFECTIVE_ROTOR_COUNT>
5

> <PUBCHEM_PHARMACOPHORE_FEATURES>
4
1 5 acceptor
6 11 19 20 21 23 24 rings
6 6 7 8 9 14 16 rings
6 6 8 13 15 17 18 rings

> <PUBCHEM_HEAVY_ATOM_COUNT>
25

> <PUBCHEM_ATOM_DEF_STEREO_COUNT>
0

> <PUBCHEM_ATOM_UDEF_STEREO_COUNT>
0

> <PUBCHEM_BOND_DEF_STEREO_COUNT>
0

> <PUBCHEM_BOND_UDEF_STEREO_COUNT>
0

> <PUBCHEM_ISOTOPIC_ATOM_COUNT>
0

> <PUBCHEM_COMPONENT_COUNT>
1

> <PUBCHEM_CACTVS_TAUTO_COUNT>
1

> <PUBCHEM_CONFORMER_ID>
01096E6B00000001

> <PUBCHEM_MMFF94_ENERGY>
56.4784

> <PUBCHEM_FEATURE_SELFOVERLAP>
20.33

> <PUBCHEM_SHAPE_FINGERPRINT>
10 15 11167934762424580786
10378564 45 18409731755466728248
10670039 82 17775570844492434397
10693767 8 18187637060241592590
10763959 59 18341891862157884036
11646440 116 13830128391232343638
11724838 91 10951761959167880522
12616971 3 13768206031149794131
13668630 136 17312817174013207942
13690498 29 18262522464688733015
13782708 43 5400541051857299956
14251752 14 18335423486469362995
14528608 73 18342462499712368691
14849402 71 9583217441595542982
15064981 194 18271513218676675537
15183329 4 18333730251542195283
15188451 53 6122499099500248819
15475509 35 5544381353800567132
15575132 122 17417262051821760197
16988056 13 18339361856160185068
17857418 61 4823218312053837813
18222031 100 15647052659917530298
19377110 9 11095878255202958555
21033648 29 17774719758331686264
22061861 79 18040436581310564287
221357 26 18410856585921796568
22393880 68 18337397049817479523
23081809 10 17203338788097565883
23198884 109 18186523216080407681
23559900 14 18041288681668930355
29717793 49 17821442465592994904
3004659 81 18186519891380198674
3383291 50 5906039396834946317
38570 142 18059856207863478451
397830 11 9727639405481766090
4073 2 18130222649511890930
531348 171 18113339700513374007
5364581 5 10015576216857390935

> <PUBCHEM_SHAPE_MULTIPOLES>
480.69
22.16
2.27
1.37
3.64
0.39
-0.08
1.84
12.15
0.94
0.27
-0.14
0.05
1.08

> <PUBCHEM_SHAPE_SELFOVERLAP>
1025.108

> <PUBCHEM_SHAPE_VOLUME>
271.7

> <PUBCHEM_COORDINATE_TYPE>
2
5
10

$$$$

