17396002
  -OEChem-06241222533D

 35 37  0     0  0  0  0  0  0999 V2000
    6.1543    1.5650   -0.0197 S   0  0  0  0  0  0  0  0  0  0  0  0
   -7.1778    0.7393   -0.0325 O   0  0  0  0  0  0  0  0  0  0  0  0
    2.6020   -0.1457   -0.0128 O   0  0  0  0  0  0  0  0  0  0  0  0
    0.8871   -2.1816    0.0127 O   0  0  0  0  0  0  0  0  0  0  0  0
    3.1581    2.0777   -0.0949 O   0  0  0  0  0  0  0  0  0  0  0  0
   -5.2811   -0.5564   -0.0570 N   0  0  0  0  0  0  0  0  0  0  0  0
   -3.7296    1.8205   -0.2232 C   0  0  0  0  0  0  0  0  0  0  0  0
   -3.0795    0.4756   -0.0719 C   0  0  0  0  0  0  0  0  0  0  0  0
   -5.0992    1.8386    0.4393 C   0  0  0  0  0  0  0  0  0  0  0  0
   -3.8798   -0.6733   -0.0337 C   0  0  0  0  0  0  0  0  0  0  0  0
   -1.6870    0.3416   -0.0715 C   0  0  0  0  0  0  0  0  0  0  0  0
   -5.9541    0.6445    0.0625 C   0  0  0  0  0  0  0  0  0  0  0  0
   -1.1043   -0.9256   -0.0200 C   0  0  0  0  0  0  0  0  0  0  0  0
   -3.2970   -1.9423   -0.0017 C   0  0  0  0  0  0  0  0  0  0  0  0
   -1.9079   -2.0651    0.0125 C   0  0  0  0  0  0  0  0  0  0  0  0
    0.3440   -1.0589   -0.0170 C   0  0  0  0  0  0  0  0  0  0  0  0
    1.2285    0.1943   -0.0526 C   0  0  0  0  0  0  0  0  0  0  0  0
    3.4955    0.8996   -0.0397 C   0  0  0  0  0  0  0  0  0  0  0  0
    4.8787    0.4231    0.0049 C   0  0  0  0  0  0  0  0  0  0  0  0
    5.3450   -0.8717    0.0673 C   0  0  0  0  0  0  0  0  0  0  0  0
    6.7684   -0.9269    0.0954 C   0  0  0  0  0  0  0  0  0  0  0  0
    7.3357    0.3277    0.0534 C   0  0  0  0  0  0  0  0  0  0  0  0
   -3.8286    2.0362   -1.2942 H   0  0  0  0  0  0  0  0  0  0  0  0
   -3.1054    2.6043    0.2209 H   0  0  0  0  0  0  0  0  0  0  0  0
   -4.9929    1.8274    1.5313 H   0  0  0  0  0  0  0  0  0  0  0  0
   -5.6298    2.7565    0.1641 H   0  0  0  0  0  0  0  0  0  0  0  0
   -1.0891    1.2465   -0.1240 H   0  0  0  0  0  0  0  0  0  0  0  0
   -5.8259   -1.4063   -0.1725 H   0  0  0  0  0  0  0  0  0  0  0  0
   -3.9125   -2.8378    0.0191 H   0  0  0  0  0  0  0  0  0  0  0  0
   -1.4751   -3.0617    0.0446 H   0  0  0  0  0  0  0  0  0  0  0  0
    1.0250    0.7342   -0.9839 H   0  0  0  0  0  0  0  0  0  0  0  0
    0.9935    0.8092    0.8232 H   0  0  0  0  0  0  0  0  0  0  0  0
    4.7075   -1.7466    0.0924 H   0  0  0  0  0  0  0  0  0  0  0  0
    7.3470   -1.8402    0.1441 H   0  0  0  0  0  0  0  0  0  0  0  0
    8.3874    0.5769    0.0621 H   0  0  0  0  0  0  0  0  0  0  0  0
  1 19  1  0  0  0  0
  1 22  1  0  0  0  0
  2 12  2  0  0  0  0
  3 17  1  0  0  0  0
  3 18  1  0  0  0  0
  4 16  2  0  0  0  0
  5 18  2  0  0  0  0
  6 10  1  0  0  0  0
  6 12  1  0  0  0  0
  6 28  1  0  0  0  0
  7  8  1  0  0  0  0
  7  9  1  0  0  0  0
  7 23  1  0  0  0  0
  7 24  1  0  0  0  0
  8 10  2  0  0  0  0
  8 11  1  0  0  0  0
  9 12  1  0  0  0  0
  9 25  1  0  0  0  0
  9 26  1  0  0  0  0
 10 14  1  0  0  0  0
 11 13  2  0  0  0  0
 11 27  1  0  0  0  0
 13 15  1  0  0  0  0
 13 16  1  0  0  0  0
 14 15  2  0  0  0  0
 14 29  1  0  0  0  0
 15 30  1  0  0  0  0
 16 17  1  0  0  0  0
 17 31  1  0  0  0  0
 17 32  1  0  0  0  0
 18 19  1  0  0  0  0
 19 20  2  0  0  0  0
 20 21  1  0  0  0  0
 20 33  1  0  0  0  0
 21 22  2  0  0  0  0
 21 34  1  0  0  0  0
 22 35  1  0  0  0  0
M  END
> <PUBCHEM_COMPOUND_CID>
17396002

> <PUBCHEM_CONFORMER_RMSD>
1

> <PUBCHEM_CONFORMER_DIVERSEORDER>
1
3
84
40
98
59
78
23
75
61
37
5
46
76
16
11
62
90
21
80
71
51
97
25
41
14
88
47
15
56
87
7
92
50
68
12
38
54
53
6
27
28
60
33
67
35
65
9
10
18
39
82
2
77
83
52
4
8
72
55
85
58
57
94
30
63
24
34
89
48
79
69
96
93
32
81
74
70
44
91
49
13
22
86
26
36
95
29
99
73
66
20
64
17
45
43
42
19
31

> <PUBCHEM_MMFF94_PARTIAL_CHARGES>
29
1 -0.08
10 0.12
11 -0.15
12 0.57
13 0.09
14 -0.15
15 -0.15
16 0.42
17 0.34
18 0.81
19 -0.05
2 -0.57
20 -0.15
21 -0.15
22 -0.11
27 0.15
28 0.37
29 0.15
3 -0.43
30 0.15
33 0.15
34 0.15
35 0.15
4 -0.57
5 -0.57
6 -0.55
7 0.14
8 -0.14
9 0.06

> <PUBCHEM_EFFECTIVE_ROTOR_COUNT>
5.6

> <PUBCHEM_PHARMACOPHORE_FEATURES>
7
1 2 acceptor
1 4 acceptor
1 5 acceptor
1 6 donor
5 1 19 20 21 22 rings
6 6 7 8 9 10 12 rings
6 8 10 11 13 14 15 rings

> <PUBCHEM_HEAVY_ATOM_COUNT>
22

> <PUBCHEM_ATOM_DEF_STEREO_COUNT>
0

> <PUBCHEM_ATOM_UDEF_STEREO_COUNT>
0

> <PUBCHEM_BOND_DEF_STEREO_COUNT>
0

> <PUBCHEM_BOND_UDEF_STEREO_COUNT>
0

> <PUBCHEM_ISOTOPIC_ATOM_COUNT>
0

> <PUBCHEM_COMPONENT_COUNT>
1

> <PUBCHEM_CACTVS_TAUTO_COUNT>
11

> <PUBCHEM_CONFORMER_ID>
0109712200000001

> <PUBCHEM_MMFF94_ENERGY>
46.3626

> <PUBCHEM_FEATURE_SELFOVERLAP>
35.546

> <PUBCHEM_SHAPE_FINGERPRINT>
10 15 18201996620777775337
100830 39 18412263968920654116
10299344 5 18059856173741155174
10411042 1 17905890272104261703
10730089 173 18408041818937553281
10835480 77 18261679165050309456
11315181 36 18272368651043296357
11578080 2 16772130248279883007
11719270 70 17821728364803259006
12107183 9 18341338902704633898
12166972 35 18410572855929266352
12236239 1 18202283576528342330
13167372 99 18409728478443773448
13533116 47 17385722552131288694
13785724 45 17906737252439649914
14251752 14 18334858329208628960
14251764 18 18343866606726812918
14251764 46 18409730665035476359
14933364 13 18411417306786853360
15183329 4 18408882949796463920
15196674 1 18410856517233643452
15716309 27 11527947854754561016
15778101 99 18408601479083013529
17844677 252 18339917100793454048
19611394 137 17987221245883240075
20281389 69 18343866627880292268
20621476 66 18410853269921954104
21033648 29 17968956192945122296
21150785 3 15864074273745493365
21236236 1 18409450250377923031
21267235 1 18341326712959505083
21279426 13 18265331888474047670
220451 1 17275108315064439546
22224240 67 14620792682827570256
23402539 116 18187651279774859902
23536379 177 18411419510284294578
23559900 14 18262525788391546424
2838139 119 18333455343766055229
3004659 81 18413669115828562280
3009799 131 16587745347688466698
335352 9 18410856546765606517
350125 39 18412265046925153776
3545911 37 18409449201941399730
38695281 34 18187082871219627878
4073 2 18059571327167930794
4214541 1 18410856542781764724
4325135 7 18261115180035481005
4339292 15 15936990535489856599
445580 204 17241037821121354585
5104073 3 18271531897283393536
5385378 56 18338512066182241890
5969126 39 18117845400527893655
6328613 192 18271801277680158212
9965369 4 18411702114494519226
9995097 60 18335420171261032222
9996256 80 18409731742270752279

> <PUBCHEM_SHAPE_MULTIPOLES>
428.14
19.8
2.08
0.61
13.38
0.16
-0.01
-6
-0.61
-0.89
-0.02
0
-0.03
-0.21

> <PUBCHEM_SHAPE_SELFOVERLAP>
915.868

> <PUBCHEM_SHAPE_VOLUME>
236.6

> <PUBCHEM_COORDINATE_TYPE>
2
5
10

$$$$

