5368
  -OEChem-06261200393D

 72 76  0     0  0  0  0  0  0999 V2000
    3.5312    1.6790   -0.0277 O   0  0  0  0  0  0  0  0  0  0  0  0
    2.7144   -0.5007    0.9910 O   0  0  0  0  0  0  0  0  0  0  0  0
   -2.1945   -2.4453    0.2546 O   0  0  0  0  0  0  0  0  0  0  0  0
   -5.4029    2.4669    1.8071 O   0  0  0  0  0  0  0  0  0  0  0  0
   -5.1911    0.3776   -2.4971 O   0  0  0  0  0  0  0  0  0  0  0  0
   -6.6376    1.7277   -0.5593 O   0  0  0  0  0  0  0  0  0  0  0  0
   -2.4712   -1.5938    2.3895 O   0  0  0  0  0  0  0  0  0  0  0  0
    0.4595   -1.0396    1.1337 N   0  0  0  0  0  0  0  0  0  0  0  0
    1.9796    3.1514   -0.8246 N   0  0  0  0  0  0  0  0  0  0  0  0
    1.2264   -5.4729   -1.1189 N   0  0  0  0  0  0  0  0  0  0  0  0
    6.4505    1.4516   -1.1574 N   0  0  0  0  0  0  0  0  0  0  0  0
    6.3796    2.4753    1.0230 N   0  0  0  0  0  0  0  0  0  0  0  0
   -1.2229    0.4928    0.3066 C   0  0  0  0  0  0  0  0  0  0  0  0
   -0.8750   -0.6812    0.8939 C   0  0  0  0  0  0  0  0  0  0  0  0
   -0.1270    1.4174   -0.0885 C   0  0  0  0  0  0  0  0  0  0  0  0
    1.2019    1.0746    0.1465 C   0  0  0  0  0  0  0  0  0  0  0  0
    0.7393   -2.3288    1.7688 C   0  0  0  0  0  0  0  0  0  0  0  0
    1.5376   -0.2089    0.7876 C   0  0  0  0  0  0  0  0  0  0  0  0
   -2.6366    0.8154    0.0804 C   0  0  0  0  0  0  0  0  0  0  0  0
    0.9096   -3.4271    0.7595 C   0  0  0  0  0  0  0  0  0  0  0  0
   -0.3823    2.6514   -0.7014 C   0  0  0  0  0  0  0  0  0  0  0  0
    2.2082    1.9600   -0.2331 C   0  0  0  0  0  0  0  0  0  0  0  0
   -3.2552    0.4417   -1.1127 C   0  0  0  0  0  0  0  0  0  0  0  0
   -3.3619    1.4958    1.0585 C   0  0  0  0  0  0  0  0  0  0  0  0
   -1.9501   -1.6214    1.2972 C   0  0  0  0  0  0  0  0  0  0  0  0
    0.6876    3.4669   -1.0437 C   0  0  0  0  0  0  0  0  0  0  0  0
   -4.7056    1.8025    0.8436 C   0  0  0  0  0  0  0  0  0  0  0  0
   -4.5988    0.7484   -1.3276 C   0  0  0  0  0  0  0  0  0  0  0  0
   -5.3241    1.4286   -0.3495 C   0  0  0  0  0  0  0  0  0  0  0  0
    1.6862   -3.2190   -0.3750 C   0  0  0  0  0  0  0  0  0  0  0  0
    0.2911   -4.6569    0.9558 C   0  0  0  0  0  0  0  0  0  0  0  0
    1.8119   -4.2645   -1.2756 C   0  0  0  0  0  0  0  0  0  0  0  0
    0.4792   -5.6381   -0.0044 C   0  0  0  0  0  0  0  0  0  0  0  0
    4.4702    2.6591   -0.4570 C   0  0  0  0  0  0  0  0  0  0  0  0
    2.6381   -4.0768   -2.5039 C   0  0  0  0  0  0  0  0  0  0  0  0
   -3.2175   -3.4181    0.4911 C   0  0  0  0  0  0  0  0  0  0  0  0
    5.8584    2.1624   -0.1787 C   0  0  0  0  0  0  0  0  0  0  0  0
   -6.0704    1.6742    2.7869 C   0  0  0  0  0  0  0  0  0  0  0  0
   -4.3792   -0.3143   -3.4439 C   0  0  0  0  0  0  0  0  0  0  0  0
   -6.9252    2.9784   -1.1803 C   0  0  0  0  0  0  0  0  0  0  0  0
    7.6974    1.0210   -0.8738 C   0  0  0  0  0  0  0  0  0  0  0  0
    7.6285    2.0134    1.2397 C   0  0  0  0  0  0  0  0  0  0  0  0
    8.3428    1.2737    0.3192 C   0  0  0  0  0  0  0  0  0  0  0  0
   -0.0222   -2.5668    2.5191 H   0  0  0  0  0  0  0  0  0  0  0  0
    1.6793   -2.2508    2.3306 H   0  0  0  0  0  0  0  0  0  0  0  0
   -1.3888    2.9938   -0.9192 H   0  0  0  0  0  0  0  0  0  0  0  0
   -2.6428   -0.0844   -1.8383 H   0  0  0  0  0  0  0  0  0  0  0  0
   -2.8870    1.7918    1.9915 H   0  0  0  0  0  0  0  0  0  0  0  0
    0.5209    4.4277   -1.5197 H   0  0  0  0  0  0  0  0  0  0  0  0
    2.1985   -2.2902   -0.5820 H   0  0  0  0  0  0  0  0  0  0  0  0
   -0.3212   -4.8547    1.8288 H   0  0  0  0  0  0  0  0  0  0  0  0
    0.0180   -6.6145    0.1016 H   0  0  0  0  0  0  0  0  0  0  0  0
    4.3719    2.8415   -1.5349 H   0  0  0  0  0  0  0  0  0  0  0  0
    4.3145    3.6012    0.0839 H   0  0  0  0  0  0  0  0  0  0  0  0
    2.2361   -3.2600   -3.1119 H   0  0  0  0  0  0  0  0  0  0  0  0
    2.6427   -4.9836   -3.1176 H   0  0  0  0  0  0  0  0  0  0  0  0
    3.6738   -3.8464   -2.2347 H   0  0  0  0  0  0  0  0  0  0  0  0
   -2.9752   -4.0268    1.3676 H   0  0  0  0  0  0  0  0  0  0  0  0
   -3.2727   -4.0713   -0.3838 H   0  0  0  0  0  0  0  0  0  0  0  0
   -4.1837   -2.9213    0.6207 H   0  0  0  0  0  0  0  0  0  0  0  0
   -6.5822    2.3464    3.4809 H   0  0  0  0  0  0  0  0  0  0  0  0
   -5.3493    1.0725    3.3494 H   0  0  0  0  0  0  0  0  0  0  0  0
   -6.8147    1.0248    2.3154 H   0  0  0  0  0  0  0  0  0  0  0  0
   -5.0110   -0.5317   -4.3114 H   0  0  0  0  0  0  0  0  0  0  0  0
   -4.0351   -1.2780   -3.0529 H   0  0  0  0  0  0  0  0  0  0  0  0
   -3.5539    0.3108   -3.8014 H   0  0  0  0  0  0  0  0  0  0  0  0
   -6.4776    3.0254   -2.1780 H   0  0  0  0  0  0  0  0  0  0  0  0
   -8.0103    3.0699   -1.2797 H   0  0  0  0  0  0  0  0  0  0  0  0
   -6.5597    3.8069   -0.5655 H   0  0  0  0  0  0  0  0  0  0  0  0
    8.1794    0.4477   -1.6585 H   0  0  0  0  0  0  0  0  0  0  0  0
    8.0537    2.2621    2.2061 H   0  0  0  0  0  0  0  0  0  0  0  0
    9.3436    0.9157    0.5199 H   0  0  0  0  0  0  0  0  0  0  0  0
  1 22  1  0  0  0  0
  1 34  1  0  0  0  0
  2 18  2  0  0  0  0
  3 25  1  0  0  0  0
  3 36  1  0  0  0  0
  4 27  1  0  0  0  0
  4 38  1  0  0  0  0
  5 28  1  0  0  0  0
  5 39  1  0  0  0  0
  6 29  1  0  0  0  0
  6 40  1  0  0  0  0
  7 25  2  0  0  0  0
  8 14  1  0  0  0  0
  8 17  1  0  0  0  0
  8 18  1  0  0  0  0
  9 22  2  0  0  0  0
  9 26  1  0  0  0  0
 10 32  2  0  0  0  0
 10 33  1  0  0  0  0
 11 37  2  0  0  0  0
 11 41  1  0  0  0  0
 12 37  1  0  0  0  0
 12 42  2  0  0  0  0
 13 14  2  0  0  0  0
 13 15  1  0  0  0  0
 13 19  1  0  0  0  0
 14 25  1  0  0  0  0
 15 16  2  0  0  0  0
 15 21  1  0  0  0  0
 16 18  1  0  0  0  0
 16 22  1  0  0  0  0
 17 20  1  0  0  0  0
 17 44  1  0  0  0  0
 17 45  1  0  0  0  0
 19 23  2  0  0  0  0
 19 24  1  0  0  0  0
 20 30  2  0  0  0  0
 20 31  1  0  0  0  0
 21 26  2  0  0  0  0
 21 46  1  0  0  0  0
 23 28  1  0  0  0  0
 23 47  1  0  0  0  0
 24 27  2  0  0  0  0
 24 48  1  0  0  0  0
 26 49  1  0  0  0  0
 27 29  1  0  0  0  0
 28 29  2  0  0  0  0
 30 32  1  0  0  0  0
 30 50  1  0  0  0  0
 31 33  2  0  0  0  0
 31 51  1  0  0  0  0
 32 35  1  0  0  0  0
 33 52  1  0  0  0  0
 34 37  1  0  0  0  0
 34 53  1  0  0  0  0
 34 54  1  0  0  0  0
 35 55  1  0  0  0  0
 35 56  1  0  0  0  0
 35 57  1  0  0  0  0
 36 58  1  0  0  0  0
 36 59  1  0  0  0  0
 36 60  1  0  0  0  0
 38 61  1  0  0  0  0
 38 62  1  0  0  0  0
 38 63  1  0  0  0  0
 39 64  1  0  0  0  0
 39 65  1  0  0  0  0
 39 66  1  0  0  0  0
 40 67  1  0  0  0  0
 40 68  1  0  0  0  0
 40 69  1  0  0  0  0
 41 43  2  0  0  0  0
 41 70  1  0  0  0  0
 42 43  1  0  0  0  0
 42 71  1  0  0  0  0
 43 72  1  0  0  0  0
M  END
> <PUBCHEM_COMPOUND_CID>
5368

> <PUBCHEM_CONFORMER_RMSD>
1.2

> <PUBCHEM_CONFORMER_DIVERSEORDER>
2
19
18
22
7
8
5
6
15
11
3
20
14
13
10
17
1
23
9
21
12
4
16

> <PUBCHEM_MMFF94_PARTIAL_CHARGES>
53
1 -0.36
10 -0.62
11 -0.62
12 -0.62
13 -0.06
14 0.12
15 0.03
16 0.09
17 0.44
18 0.54
19 0.03
2 -0.57
20 -0.14
21 -0.15
22 0.39
23 -0.15
24 -0.15
25 0.71
26 0.16
27 0.08
28 0.08
29 0.08
3 -0.43
30 -0.15
31 -0.15
32 0.17
33 0.16
34 0.42
35 0.14
36 0.28
37 0.48
38 0.28
39 0.28
4 -0.36
40 0.28
41 0.16
42 0.16
43 -0.15
46 0.15
47 0.15
48 0.15
49 0.15
5 -0.36
50 0.15
51 0.15
52 0.15
6 -0.36
7 -0.57
70 0.15
71 0.15
72 0.15
8 -0.47
9 -0.62

> <PUBCHEM_EFFECTIVE_ROTOR_COUNT>
11

> <PUBCHEM_PHARMACOPHORE_FEATURES>
13
1 10 acceptor
1 12 acceptor
1 2 acceptor
1 4 acceptor
1 5 acceptor
1 6 acceptor
1 7 acceptor
3 11 12 37 cation
6 10 20 30 31 32 33 rings
6 11 12 37 41 42 43 rings
6 19 23 24 27 28 29 rings
6 8 13 14 15 16 18 rings
6 9 15 16 21 22 26 rings

> <PUBCHEM_HEAVY_ATOM_COUNT>
43

> <PUBCHEM_ATOM_DEF_STEREO_COUNT>
0

> <PUBCHEM_ATOM_UDEF_STEREO_COUNT>
0

> <PUBCHEM_BOND_DEF_STEREO_COUNT>
0

> <PUBCHEM_BOND_UDEF_STEREO_COUNT>
0

> <PUBCHEM_ISOTOPIC_ATOM_COUNT>
0

> <PUBCHEM_COMPONENT_COUNT>
1

> <PUBCHEM_CACTVS_TAUTO_COUNT>
1

> <PUBCHEM_CONFORMER_ID>
000014F800000002

> <PUBCHEM_MMFF94_ENERGY>
172.9722

> <PUBCHEM_FEATURE_SELFOVERLAP>
66.001

> <PUBCHEM_SHAPE_FINGERPRINT>
102385 1 17764314238127753332
10906281 52 18271530882885303064
11135926 11 18343025501189540669
11513181 2 18266746972555235909
11524674 6 18412265000229380132
11991303 11 18058733486237930302
12597179 24 18410569579121862118
13008946 267 18047459304038775840
15297060 5 18333726901394241768
15439362 3 18267304408044903229
1813 80 17831586740486576175
20505436 4 17895185645653762345
20587220 46 16677613909658451317
21033648 144 18131080337232019071
21033648 29 18114747019567725264
21133665 82 18342455933988890818
21756936 100 18261101972974746361
3383291 50 18338235934397613426
4017518 198 18335135380954723814
4516262 110 18336826493973264681
504843 32 18271807857079614114
5085150 59 18337393725924027754
6669772 16 18338229461650088599
6691757 9 18263643979475625680

> <PUBCHEM_SHAPE_MULTIPOLES>
818.93
16.84
6.83
2.16
16.78
11.8
0.66
-22.04
0.85
3.62
1.26
-3.05
0.57
0.95

> <PUBCHEM_SHAPE_SELFOVERLAP>
1796.577

> <PUBCHEM_SHAPE_VOLUME>
440

> <PUBCHEM_COORDINATE_TYPE>
2
5
10

$$$$

