9035
  -OEChem-06261203202D

 35 37  0     0  0  0  0  0  0999 V2000
    4.8660   -0.6623    0.0000 S   0  0  0  0  0  0  0  0  0  0  0  0
    3.8660   -0.6623    0.0000 P   0  0  0  0  0  0  0  0  0  0  0  0
    3.8660   -1.6623    0.0000 N   0  0  0  0  0  0  0  0  0  0  0  0
    2.8660   -0.6623    0.0000 N   0  0  0  0  0  0  0  0  0  0  0  0
    3.8660    0.3377    0.0000 N   0  0  0  0  0  0  0  0  0  0  0  0
    3.3660   -2.5283    0.0000 C   0  0  0  0  0  0  0  0  0  0  0  0
    4.3660   -2.5283    0.0000 C   0  0  0  0  0  0  0  0  0  0  0  0
    2.0000   -0.1623    0.0000 C   0  0  0  0  0  0  0  0  0  0  0  0
    2.0000   -1.1623    0.0000 C   0  0  0  0  0  0  0  0  0  0  0  0
    2.9651    0.7716    0.0000 C   0  0  0  0  0  0  0  0  0  0  0  0
    4.7670    0.7716    0.0000 C   0  0  0  0  0  0  0  0  0  0  0  0
    2.7425    1.7465    0.0000 C   0  0  0  0  0  0  0  0  0  0  0  0
    4.9895    1.7465    0.0000 C   0  0  0  0  0  0  0  0  0  0  0  0
    3.3660    2.5283    0.0000 C   0  0  0  0  0  0  0  0  0  0  0  0
    4.3660    2.5283    0.0000 C   0  0  0  0  0  0  0  0  0  0  0  0
    1.3894   -1.2700    0.0000 H   0  0  0  0  0  0  0  0  0  0  0  0
    2.2120   -1.7449    0.0000 H   0  0  0  0  0  0  0  0  0  0  0  0
    2.2120    0.4203    0.0000 H   0  0  0  0  0  0  0  0  0  0  0  0
    1.3894   -0.0546    0.0000 H   0  0  0  0  0  0  0  0  0  0  0  0
    4.4737   -3.1389    0.0000 H   0  0  0  0  0  0  0  0  0  0  0  0
    4.9486   -2.3163    0.0000 H   0  0  0  0  0  0  0  0  0  0  0  0
    2.7834   -2.3163    0.0000 H   0  0  0  0  0  0  0  0  0  0  0  0
    3.2584   -3.1389    0.0000 H   0  0  0  0  0  0  0  0  0  0  0  0
    4.9050    0.1671    0.0000 H   0  0  0  0  0  0  0  0  0  0  0  0
    5.3870    0.7716    0.0000 H   0  0  0  0  0  0  0  0  0  0  0  0
    2.3451    0.7716    0.0000 H   0  0  0  0  0  0  0  0  0  0  0  0
    2.8271    0.1671    0.0000 H   0  0  0  0  0  0  0  0  0  0  0  0
    2.3560    2.2312    0.0000 H   0  0  0  0  0  0  0  0  0  0  0  0
    2.1839    1.4775    0.0000 H   0  0  0  0  0  0  0  0  0  0  0  0
    5.5481    1.4775    0.0000 H   0  0  0  0  0  0  0  0  0  0  0  0
    5.3761    2.2312    0.0000 H   0  0  0  0  0  0  0  0  0  0  0  0
    3.5040    3.1328    0.0000 H   0  0  0  0  0  0  0  0  0  0  0  0
    2.8074    2.7973    0.0000 H   0  0  0  0  0  0  0  0  0  0  0  0
    4.9246    2.7973    0.0000 H   0  0  0  0  0  0  0  0  0  0  0  0
    4.2281    3.1328    0.0000 H   0  0  0  0  0  0  0  0  0  0  0  0
  1  2  2  0  0  0  0
  2  3  1  0  0  0  0
  2  4  1  0  0  0  0
  2  5  1  0  0  0  0
  3  6  1  0  0  0  0
  3  7  1  0  0  0  0
  4  8  1  0  0  0  0
  4  9  1  0  0  0  0
  5 10  1  0  0  0  0
  5 11  1  0  0  0  0
  6  7  1  0  0  0  0
  6 22  1  0  0  0  0
  6 23  1  0  0  0  0
  7 20  1  0  0  0  0
  7 21  1  0  0  0  0
  8  9  1  0  0  0  0
  8 18  1  0  0  0  0
  8 19  1  0  0  0  0
  9 16  1  0  0  0  0
  9 17  1  0  0  0  0
 10 12  1  0  0  0  0
 10 26  1  0  0  0  0
 10 27  1  0  0  0  0
 11 13  1  0  0  0  0
 11 24  1  0  0  0  0
 11 25  1  0  0  0  0
 12 14  1  0  0  0  0
 12 28  1  0  0  0  0
 12 29  1  0  0  0  0
 13 15  1  0  0  0  0
 13 30  1  0  0  0  0
 13 31  1  0  0  0  0
 14 15  1  0  0  0  0
 14 32  1  0  0  0  0
 14 33  1  0  0  0  0
 15 34  1  0  0  0  0
 15 35  1  0  0  0  0
M  END
> <PUBCHEM_COMPOUND_CID>
9035

> <PUBCHEM_COMPOUND_CANONICALIZED>
1

> <PUBCHEM_CACTVS_COMPLEXITY>
264

> <PUBCHEM_CACTVS_HBOND_ACCEPTOR>
4

> <PUBCHEM_CACTVS_HBOND_DONOR>
0

> <PUBCHEM_CACTVS_ROTATABLE_BOND>
3

> <PUBCHEM_CACTVS_SUBSKEYS>
AAADceBzAAJAAAAAAAAAAAAAFiwAAAAAAAAAAAAABYAAAAAAAAAAHAAAgAAACADBAAQAAAIAAAAAAAAAAAAAAAAAAAAAAAAIAAAAAAIAgAAEAAAAAACAAAEQAAAAAAAAAAAAAAAAAAAAAAAAAAAAAAAAAA==

> <PUBCHEM_IUPAC_OPENEYE_NAME>
azepan-1-yl-bis(aziridin-1-yl)-thioxo-$l^{5}-phosphane

> <PUBCHEM_IUPAC_CAS_NAME>
1-azepanyl-bis(1-aziridinyl)-sulfanylidenephosphorane

> <PUBCHEM_IUPAC_NAME>
azepan-1-yl-bis(aziridin-1-yl)-sulfanylidene-$l^{5}-phosphane

> <PUBCHEM_IUPAC_SYSTEMATIC_NAME>
azepan-1-yl-bis(aziridin-1-yl)-sulfanylidene-$l^{5}-phosphane

> <PUBCHEM_IUPAC_TRADITIONAL_NAME>
azepan-1-yl-diethylenimino-thioxo-phosphorane

> <PUBCHEM_IUPAC_INCHI>
InChI=1S/C10H20N3PS/c15-14(12-7-8-12,13-9-10-13)11-5-3-1-2-4-6-11/h1-10H2

> <PUBCHEM_IUPAC_INCHIKEY>
IAQOECAZMQEZLI-UHFFFAOYSA-N

> <PUBCHEM_XLOGP3_AA>
2.5

> <PUBCHEM_EXACT_MASS>
245.111555

> <PUBCHEM_MOLECULAR_FORMULA>
C10H20N3PS

> <PUBCHEM_MOLECULAR_WEIGHT>
245.324662

> <PUBCHEM_OPENEYE_CAN_SMILES>
C1CCCN(CC1)P(=S)(N2CC2)N3CC3

> <PUBCHEM_OPENEYE_ISO_SMILES>
C1CCCN(CC1)P(=S)(N2CC2)N3CC3

> <PUBCHEM_CACTVS_TPSA>
41.4

> <PUBCHEM_MONOISOTOPIC_WEIGHT>
245.111555

> <PUBCHEM_TOTAL_CHARGE>
0

> <PUBCHEM_HEAVY_ATOM_COUNT>
15

> <PUBCHEM_ATOM_DEF_STEREO_COUNT>
0

> <PUBCHEM_ATOM_UDEF_STEREO_COUNT>
0

> <PUBCHEM_BOND_DEF_STEREO_COUNT>
0

> <PUBCHEM_BOND_UDEF_STEREO_COUNT>
0

> <PUBCHEM_ISOTOPIC_ATOM_COUNT>
0

> <PUBCHEM_COMPONENT_COUNT>
1

> <PUBCHEM_CACTVS_TAUTO_COUNT>
1

> <PUBCHEM_COORDINATE_TYPE>
1
5
255

$$$$

