12497
  -OEChem-06261207003D

 21 21  0     0  0  0  0  0  0999 V2000
    0.7318    0.0097   -0.9642 O   0  0  0  0  0  0  0  0  0  0  0  0
    1.4763   -0.0048    1.2524 O   0  0  0  0  0  0  0  0  0  0  0  0
    3.0833    0.0113   -0.5758 C   0  0  0  0  0  0  0  0  0  0  0  0
   -0.5504    0.0044   -0.5075 C   0  0  0  0  0  0  0  0  0  0  0  0
    1.7074    0.0048    0.0509 C   0  0  0  0  0  0  0  0  0  0  0  0
    4.1856   -0.0152    0.4685 C   0  0  0  0  0  0  0  0  0  0  0  0
   -1.2096    1.2097   -0.2657 C   0  0  0  0  0  0  0  0  0  0  0  0
   -1.2048   -1.2062   -0.2805 C   0  0  0  0  0  0  0  0  0  0  0  0
   -2.5232    1.2043    0.2034 C   0  0  0  0  0  0  0  0  0  0  0  0
   -2.5186   -1.2117    0.1883 C   0  0  0  0  0  0  0  0  0  0  0  0
   -3.1777   -0.0064    0.4302 C   0  0  0  0  0  0  0  0  0  0  0  0
    3.1802    0.9154   -1.1856 H   0  0  0  0  0  0  0  0  0  0  0  0
    3.1727   -0.8689   -1.2209 H   0  0  0  0  0  0  0  0  0  0  0  0
    4.1139   -0.9118    1.0931 H   0  0  0  0  0  0  0  0  0  0  0  0
    5.1678   -0.0115   -0.0138 H   0  0  0  0  0  0  0  0  0  0  0  0
    4.1240    0.8573    1.1274 H   0  0  0  0  0  0  0  0  0  0  0  0
   -0.7057    2.1564   -0.4407 H   0  0  0  0  0  0  0  0  0  0  0  0
   -0.6973   -2.1486   -0.4673 H   0  0  0  0  0  0  0  0  0  0  0  0
   -3.0365    2.1427    0.3918 H   0  0  0  0  0  0  0  0  0  0  0  0
   -3.0283   -2.1543    0.3651 H   0  0  0  0  0  0  0  0  0  0  0  0
   -4.2006   -0.0106    0.7953 H   0  0  0  0  0  0  0  0  0  0  0  0
  1  4  1  0  0  0  0
  1  5  1  0  0  0  0
  2  5  2  0  0  0  0
  3  5  1  0  0  0  0
  3  6  1  0  0  0  0
  3 12  1  0  0  0  0
  3 13  1  0  0  0  0
  4  7  2  0  0  0  0
  4  8  1  0  0  0  0
  6 14  1  0  0  0  0
  6 15  1  0  0  0  0
  6 16  1  0  0  0  0
  7  9  1  0  0  0  0
  7 17  1  0  0  0  0
  8 10  2  0  0  0  0
  8 18  1  0  0  0  0
  9 11  2  0  0  0  0
  9 19  1  0  0  0  0
 10 11  1  0  0  0  0
 10 20  1  0  0  0  0
 11 21  1  0  0  0  0
M  END
> <PUBCHEM_COMPOUND_CID>
12497

> <PUBCHEM_CONFORMER_RMSD>
0.6

> <PUBCHEM_CONFORMER_DIVERSEORDER>
1
18
13
15
6
17
19
8
5
16
7
11
4
9
12
2
10
3
14

> <PUBCHEM_MMFF94_PARTIAL_CHARGES>
15
1 -0.23
10 -0.15
11 -0.15
17 0.15
18 0.15
19 0.15
2 -0.57
20 0.15
21 0.15
3 0.06
4 0.08
5 0.66
7 -0.15
8 -0.15
9 -0.15

> <PUBCHEM_EFFECTIVE_ROTOR_COUNT>
3

> <PUBCHEM_PHARMACOPHORE_FEATURES>
3
1 2 acceptor
1 6 hydrophobe
6 4 7 8 9 10 11 rings

> <PUBCHEM_HEAVY_ATOM_COUNT>
11

> <PUBCHEM_ATOM_DEF_STEREO_COUNT>
0

> <PUBCHEM_ATOM_UDEF_STEREO_COUNT>
0

> <PUBCHEM_BOND_DEF_STEREO_COUNT>
0

> <PUBCHEM_BOND_UDEF_STEREO_COUNT>
0

> <PUBCHEM_ISOTOPIC_ATOM_COUNT>
0

> <PUBCHEM_COMPONENT_COUNT>
1

> <PUBCHEM_CACTVS_TAUTO_COUNT>
1

> <PUBCHEM_CONFORMER_ID>
000030D100000001

> <PUBCHEM_MMFF94_ENERGY>
26.0256

> <PUBCHEM_FEATURE_SELFOVERLAP>
15.223

> <PUBCHEM_SHAPE_FINGERPRINT>
10857977 72 18334857186757741001
11062470 55 7925910374691411362
124424 183 17676773157926748842
12932764 1 17632584855005906460
13024252 1 14836405843856358741
14325111 11 18408882970859798230
15219456 202 17895747516863510830
15775835 57 18340484564372349433
190213 19 17917711305532053910
19422 9 17988918968534078326
20279233 1 17676204684650698894
20645464 45 17894345583819416463
20871998 184 18261104120020440303
23402539 116 18259993665226937575
369184 2 18260269659429778215
75552 356 18413105044002485911

> <PUBCHEM_SHAPE_MULTIPOLES>
214.64
6.15
1.16
0.89
4.99
0
-0.06
0.02
-1.06
-1.03
0.03
0.3
0
-0.01

> <PUBCHEM_SHAPE_SELFOVERLAP>
437.963

> <PUBCHEM_SHAPE_VOLUME>
123.3

> <PUBCHEM_COORDINATE_TYPE>
2
5
10

$$$$

