5286
  -OEChem-06261200372D

 77 79  0     1  0  0  0  0  0999 V2000
   13.8274    5.0939    0.0000 O   0  0  0  0  0  0  0  0  0  0  0  0
    7.7796    2.5488    0.0000 O   0  0  0  0  0  0  0  0  0  0  0  0
    2.6067   -4.9902    0.0000 O   0  0  0  0  0  0  0  0  0  0  0  0
    2.2495   -3.2954    0.0000 O   0  0  0  0  0  0  0  0  0  0  0  0
   11.1754    3.5488    0.0000 C   0  0  3  0  0  0  0  0  0  0  0  0
   10.3094    3.0488    0.0000 C   0  0  3  0  0  0  0  0  0  0  0  0
   12.0414    3.0488    0.0000 C   0  0  3  0  0  0  0  0  0  0  0  0
   10.3094    2.0488    0.0000 C   0  0  3  0  0  0  0  0  0  0  0  0
   12.9514    3.5556    0.0000 C   0  0  0  0  0  0  0  0  0  0  0  0
   12.0414    2.0488    0.0000 C   0  0  0  0  0  0  0  0  0  0  0  0
   11.1754    1.5488    0.0000 C   0  0  0  0  0  0  0  0  0  0  0  0
   11.1594    4.5903    0.0000 C   0  0  0  0  0  0  0  0  0  0  0  0
    9.3632    3.3535    0.0000 C   0  0  0  0  0  0  0  0  0  0  0  0
    9.3632    1.7440    0.0000 C   0  0  0  0  0  0  0  0  0  0  0  0
   10.3094    4.0488    0.0000 C   0  0  0  0  0  0  0  0  0  0  0  0
   12.0574    5.1180    0.0000 C   0  0  0  0  0  0  0  0  0  0  0  0
   10.3094    1.0488    0.0000 C   0  0  0  0  0  0  0  0  0  0  0  0
   12.9595    4.5972    0.0000 C   0  0  0  0  0  0  0  0  0  0  0  0
    8.7796    2.5488    0.0000 C   0  0  0  0  0  0  0  0  0  0  0  0
   13.9514    3.5440    0.0000 C   0  0  0  0  0  0  0  0  0  0  0  0
   13.4414    2.6839    0.0000 C   0  0  0  0  0  0  0  0  0  0  0  0
    9.0525    0.7935    0.0000 C   0  0  0  0  0  0  0  0  0  0  0  0
    9.7204    0.0492    0.0000 C   0  0  0  0  0  0  0  0  0  0  0  0
    8.0740    0.5873    0.0000 C   0  0  0  0  0  0  0  0  0  0  0  0
    7.7634   -0.3632    0.0000 C   0  0  0  0  0  0  0  0  0  0  0  0
    6.7848   -0.5694    0.0000 C   0  0  0  0  0  0  0  0  0  0  0  0
    6.4742   -1.5200    0.0000 C   0  0  0  0  0  0  0  0  0  0  0  0
    7.1420   -2.2643    0.0000 C   0  0  0  0  0  0  0  0  0  0  0  0
    5.4957   -1.7262    0.0000 C   0  0  0  0  0  0  0  0  0  0  0  0
    5.1850   -2.6767    0.0000 C   0  0  0  0  0  0  0  0  0  0  0  0
    5.8528   -3.4210    0.0000 C   0  0  0  0  0  0  0  0  0  0  0  0
    4.2065   -2.8829    0.0000 C   0  0  0  0  0  0  0  0  0  0  0  0
    3.8958   -3.8334    0.0000 C   0  0  0  0  0  0  0  0  0  0  0  0
    4.5637   -4.5777    0.0000 C   0  0  0  0  0  0  0  0  0  0  0  0
    2.9173   -4.0397    0.0000 C   0  0  0  0  0  0  0  0  0  0  0  0
   10.2194    3.8940    0.0000 H   0  0  0  0  0  0  0  0  0  0  0  0
   12.7743    2.6181    0.0000 H   0  0  0  0  0  0  0  0  0  0  0  0
   12.2535    1.4662    0.0000 H   0  0  0  0  0  0  0  0  0  0  0  0
   12.6520    2.1564    0.0000 H   0  0  0  0  0  0  0  0  0  0  0  0
   10.7769    1.0738    0.0000 H   0  0  0  0  0  0  0  0  0  0  0  0
   11.5740    1.0738    0.0000 H   0  0  0  0  0  0  0  0  0  0  0  0
   10.9413    5.1707    0.0000 H   0  0  0  0  0  0  0  0  0  0  0  0
   10.5502    4.4748    0.0000 H   0  0  0  0  0  0  0  0  0  0  0  0
    9.6142    3.9204    0.0000 H   0  0  0  0  0  0  0  0  0  0  0  0
    8.8258    3.6627    0.0000 H   0  0  0  0  0  0  0  0  0  0  0  0
   10.6194    4.5857    0.0000 H   0  0  0  0  0  0  0  0  0  0  0  0
    9.7725    4.3588    0.0000 H   0  0  0  0  0  0  0  0  0  0  0  0
    9.9994    3.5118    0.0000 H   0  0  0  0  0  0  0  0  0  0  0  0
   12.4547    5.5940    0.0000 H   0  0  0  0  0  0  0  0  0  0  0  0
   11.6564    5.5909    0.0000 H   0  0  0  0  0  0  0  0  0  0  0  0
    9.6894    1.0488    0.0000 H   0  0  0  0  0  0  0  0  0  0  0  0
   10.3094    0.4288    0.0000 H   0  0  0  0  0  0  0  0  0  0  0  0
   10.9294    1.0488    0.0000 H   0  0  0  0  0  0  0  0  0  0  0  0
   13.9442    2.9241    0.0000 H   0  0  0  0  0  0  0  0  0  0  0  0
   14.5713    3.5369    0.0000 H   0  0  0  0  0  0  0  0  0  0  0  0
   13.9586    4.1640    0.0000 H   0  0  0  0  0  0  0  0  0  0  0  0
   12.9009    2.3801    0.0000 H   0  0  0  0  0  0  0  0  0  0  0  0
   13.7452    2.1434    0.0000 H   0  0  0  0  0  0  0  0  0  0  0  0
   13.9819    2.9876    0.0000 H   0  0  0  0  0  0  0  0  0  0  0  0
    9.2589   -0.3648    0.0000 H   0  0  0  0  0  0  0  0  0  0  0  0
   10.1344   -0.4122    0.0000 H   0  0  0  0  0  0  0  0  0  0  0  0
   10.1818    0.4633    0.0000 H   0  0  0  0  0  0  0  0  0  0  0  0
    7.6600    1.0488    0.0000 H   0  0  0  0  0  0  0  0  0  0  0  0
    8.1774   -0.8247    0.0000 H   0  0  0  0  0  0  0  0  0  0  0  0
    6.3708   -0.1080    0.0000 H   0  0  0  0  0  0  0  0  0  0  0  0
    6.6806   -2.6783    0.0000 H   0  0  0  0  0  0  0  0  0  0  0  0
    7.5561   -2.7257    0.0000 H   0  0  0  0  0  0  0  0  0  0  0  0
    7.6035   -1.8502    0.0000 H   0  0  0  0  0  0  0  0  0  0  0  0
    5.0816   -1.2647    0.0000 H   0  0  0  0  0  0  0  0  0  0  0  0
    5.3914   -3.8351    0.0000 H   0  0  0  0  0  0  0  0  0  0  0  0
    6.2669   -3.8825    0.0000 H   0  0  0  0  0  0  0  0  0  0  0  0
    6.3143   -3.0069    0.0000 H   0  0  0  0  0  0  0  0  0  0  0  0
    3.7924   -2.4214    0.0000 H   0  0  0  0  0  0  0  0  0  0  0  0
    4.1022   -4.9918    0.0000 H   0  0  0  0  0  0  0  0  0  0  0  0
    4.9778   -5.0392    0.0000 H   0  0  0  0  0  0  0  0  0  0  0  0
    5.0252   -4.1637    0.0000 H   0  0  0  0  0  0  0  0  0  0  0  0
    2.0000   -5.1180    0.0000 H   0  0  0  0  0  0  0  0  0  0  0  0
  1 18  2  0  0  0  0
  2 19  2  0  0  0  0
  3 35  1  0  0  0  0
  3 77  1  0  0  0  0
  4 35  2  0  0  0  0
  5  6  1  0  0  0  0
  5  7  1  0  0  0  0
  5 12  1  0  0  0  0
  5 15  1  0  0  0  0
  6  8  1  0  0  0  0
  6 13  1  0  0  0  0
  6 36  1  0  0  0  0
  7  9  1  0  0  0  0
  7 10  1  0  0  0  0
  7 37  1  0  0  0  0
  8 11  1  0  0  0  0
  8 14  1  0  0  0  0
  8 17  1  0  0  0  0
  9 18  1  0  0  0  0
  9 20  1  0  0  0  0
  9 21  1  0  0  0  0
 10 11  1  0  0  0  0
 10 38  1  0  0  0  0
 10 39  1  0  0  0  0
 11 40  1  0  0  0  0
 11 41  1  0  0  0  0
 12 16  1  0  0  0  0
 12 42  1  0  0  0  0
 12 43  1  0  0  0  0
 13 19  1  0  0  0  0
 13 44  1  0  0  0  0
 13 45  1  0  0  0  0
 14 19  1  0  0  0  0
 14 22  2  3  0  0  0
 15 46  1  0  0  0  0
 15 47  1  0  0  0  0
 15 48  1  0  0  0  0
 16 18  1  0  0  0  0
 16 49  1  0  0  0  0
 16 50  1  0  0  0  0
 17 51  1  0  0  0  0
 17 52  1  0  0  0  0
 17 53  1  0  0  0  0
 20 54  1  0  0  0  0
 20 55  1  0  0  0  0
 20 56  1  0  0  0  0
 21 57  1  0  0  0  0
 21 58  1  0  0  0  0
 21 59  1  0  0  0  0
 22 23  1  0  0  0  0
 22 24  1  0  0  0  0
 23 60  1  0  0  0  0
 23 61  1  0  0  0  0
 23 62  1  0  0  0  0
 24 25  2  3  0  0  0
 24 63  1  0  0  0  0
 25 26  1  0  0  0  0
 25 64  1  0  0  0  0
 26 27  2  3  0  0  0
 26 65  1  0  0  0  0
 27 28  1  0  0  0  0
 27 29  1  0  0  0  0
 28 66  1  0  0  0  0
 28 67  1  0  0  0  0
 28 68  1  0  0  0  0
 29 30  2  3  0  0  0
 29 69  1  0  0  0  0
 30 31  1  0  0  0  0
 30 32  1  0  0  0  0
 31 70  1  0  0  0  0
 31 71  1  0  0  0  0
 31 72  1  0  0  0  0
 32 33  2  3  0  0  0
 32 73  1  0  0  0  0
 33 34  1  0  0  0  0
 33 35  1  0  0  0  0
 34 74  1  0  0  0  0
 34 75  1  0  0  0  0
 34 76  1  0  0  0  0
M  END
> <PUBCHEM_COMPOUND_CID>
5286

> <PUBCHEM_COMPOUND_CANONICALIZED>
1

> <PUBCHEM_CACTVS_COMPLEXITY>
1090

> <PUBCHEM_CACTVS_HBOND_ACCEPTOR>
4

> <PUBCHEM_CACTVS_HBOND_DONOR>
1

> <PUBCHEM_CACTVS_ROTATABLE_BOND>
5

> <PUBCHEM_CACTVS_SUBSKEYS>
AAADcfB4OAAAAAAAAAAAAAAAAAAAAYAAAAAwYAAAAAAAAGDAAAAAGgAACAAADwSAgAACCAAAAgCIAqDSCAAAAAAgAAAICAEAAEgIBBIAAQAAUAAAgAAIkYMIiMCPgAAAAAAAAACAAAQAACAAAAAACAAAAA==

> <PUBCHEM_IUPAC_OPENEYE_NAME>
10-(3a,6,6,9a-tetramethyl-2,7-dioxo-4,5,5a,8,9,9b-hexahydro-1H-cyclopenta[a]naphthalen-3-ylidene)-2,4,6-trimethyl-undeca-2,4,6,8-tetraenoic acid

> <PUBCHEM_IUPAC_CAS_NAME>
10-(3a,6,6,9a-tetramethyl-2,7-dioxo-4,5,5a,8,9,9b-hexahydro-1H-cyclopenta[a]naphthalen-3-ylidene)-2,4,6-trimethylundeca-2,4,6,8-tetraenoic acid

> <PUBCHEM_IUPAC_NAME>
10-(3a,6,6,9a-tetramethyl-2,7-dioxo-4,5,5a,8,9,9b-hexahydro-1H-cyclopenta[a]naphthalen-3-ylidene)-2,4,6-trimethylundeca-2,4,6,8-tetraenoic acid

> <PUBCHEM_IUPAC_SYSTEMATIC_NAME>
10-[3a,6,6,9a-tetramethyl-2,7-bis(oxidanylidene)-4,5,5a,8,9,9b-hexahydro-1H-cyclopenta[a]naphthalen-3-ylidene]-2,4,6-trimethyl-undeca-2,4,6,8-tetraenoic acid

> <PUBCHEM_IUPAC_TRADITIONAL_NAME>
10-(2,7-diketo-3a,6,6,9a-tetramethyl-4,5,5a,8,9,9b-hexahydro-1H-benz[e]inden-3-ylidene)-2,4,6-trimethyl-undeca-2,4,6,8-tetraenoic acid

> <PUBCHEM_IUPAC_INCHI>
InChI=1S/C31H42O4/c1-19(16-20(2)17-22(4)28(34)35)10-9-11-21(3)27-23(32)18-25-30(7)15-13-26(33)29(5,6)24(30)12-14-31(25,27)8/h9-11,16-17,24-25H,12-15,18H2,1-8H3,(H,34,35)

> <PUBCHEM_IUPAC_INCHIKEY>
YDOWKNWBJSWRBO-UHFFFAOYSA-N

> <PUBCHEM_XLOGP3_AA>
7.7

> <PUBCHEM_EXACT_MASS>
478.30831

> <PUBCHEM_MOLECULAR_FORMULA>
C31H42O4

> <PUBCHEM_MOLECULAR_WEIGHT>
478.66278

> <PUBCHEM_OPENEYE_CAN_SMILES>
CC(=C1C(=O)CC2C1(CCC3C2(CCC(=O)C3(C)C)C)C)C=CC=C(C)C=C(C)C=C(C)C(=O)O

> <PUBCHEM_OPENEYE_ISO_SMILES>
CC(=C1C(=O)CC2C1(CCC3C2(CCC(=O)C3(C)C)C)C)C=CC=C(C)C=C(C)C=C(C)C(=O)O

> <PUBCHEM_CACTVS_TPSA>
71.4

> <PUBCHEM_MONOISOTOPIC_WEIGHT>
478.30831

> <PUBCHEM_TOTAL_CHARGE>
0

> <PUBCHEM_HEAVY_ATOM_COUNT>
35

> <PUBCHEM_ATOM_DEF_STEREO_COUNT>
0

> <PUBCHEM_ATOM_UDEF_STEREO_COUNT>
4

> <PUBCHEM_BOND_DEF_STEREO_COUNT>
0

> <PUBCHEM_BOND_UDEF_STEREO_COUNT>
5

> <PUBCHEM_ISOTOPIC_ATOM_COUNT>
0

> <PUBCHEM_COMPONENT_COUNT>
1

> <PUBCHEM_CACTVS_TAUTO_COUNT>
10

> <PUBCHEM_COORDINATE_TYPE>
1
5
255

> <PUBCHEM_BONDANNOTATIONS>
14  22  1
24  25  1
26  27  1
29  30  1
32  33  1
5  15  3
6  36  3
7  37  3
8  17  3

$$$$

