11474
  -OEChem-06261205433D

 15 15  0     0  0  0  0  0  0999 V2000
    2.7046    0.0257   -0.7052 O   0  0  0  0  0  0  0  0  0  0  0  0
   -0.0567   -1.1995    0.1529 N   0  0  0  0  0  0  0  0  0  0  0  0
    0.5341    0.0112    0.2668 C   0  0  0  0  0  0  0  0  0  0  0  0
    2.0027    0.0161    0.5315 C   0  0  0  0  0  0  0  0  0  0  0  0
   -0.1395    1.2167    0.1527 C   0  0  0  0  0  0  0  0  0  0  0  0
   -1.5072    1.1772   -0.0941 C   0  0  0  0  0  0  0  0  0  0  0  0
   -2.1507   -0.0493   -0.2175 C   0  0  0  0  0  0  0  0  0  0  0  0
   -1.3872   -1.1982   -0.0870 C   0  0  0  0  0  0  0  0  0  0  0  0
    2.3084    0.8877    1.1191 H   0  0  0  0  0  0  0  0  0  0  0  0
    2.2976   -0.8796    1.0883 H   0  0  0  0  0  0  0  0  0  0  0  0
    0.3716    2.1686    0.2489 H   0  0  0  0  0  0  0  0  0  0  0  0
   -2.0708    2.1003   -0.1905 H   0  0  0  0  0  0  0  0  0  0  0  0
   -3.2160   -0.1041   -0.4101 H   0  0  0  0  0  0  0  0  0  0  0  0
   -1.8413   -2.1797   -0.1750 H   0  0  0  0  0  0  0  0  0  0  0  0
    2.2832   -0.6171   -1.3010 H   0  0  0  0  0  0  0  0  0  0  0  0
  1  4  1  0  0  0  0
  1 15  1  0  0  0  0
  2  3  1  0  0  0  0
  2  8  2  0  0  0  0
  3  4  1  0  0  0  0
  3  5  2  0  0  0  0
  4  9  1  0  0  0  0
  4 10  1  0  0  0  0
  5  6  1  0  0  0  0
  5 11  1  0  0  0  0
  6  7  2  0  0  0  0
  6 12  1  0  0  0  0
  7  8  1  0  0  0  0
  7 13  1  0  0  0  0
  8 14  1  0  0  0  0
M  END
> <PUBCHEM_COMPOUND_CID>
11474

> <PUBCHEM_CONFORMER_RMSD>
0.4

> <PUBCHEM_CONFORMER_DIVERSEORDER>
1
3
2
4

> <PUBCHEM_MMFF94_PARTIAL_CHARGES>
13
1 -0.68
11 0.15
12 0.15
13 0.15
14 0.15
15 0.4
2 -0.62
3 0.17
4 0.42
5 -0.15
6 -0.15
7 -0.15
8 0.16

> <PUBCHEM_EFFECTIVE_ROTOR_COUNT>
1

> <PUBCHEM_PHARMACOPHORE_FEATURES>
4
1 1 acceptor
1 1 donor
1 2 acceptor
6 2 3 5 6 7 8 rings

> <PUBCHEM_HEAVY_ATOM_COUNT>
8

> <PUBCHEM_ATOM_DEF_STEREO_COUNT>
0

> <PUBCHEM_ATOM_UDEF_STEREO_COUNT>
0

> <PUBCHEM_BOND_DEF_STEREO_COUNT>
0

> <PUBCHEM_BOND_UDEF_STEREO_COUNT>
0

> <PUBCHEM_ISOTOPIC_ATOM_COUNT>
0

> <PUBCHEM_COMPONENT_COUNT>
1

> <PUBCHEM_CACTVS_TAUTO_COUNT>
1

> <PUBCHEM_CONFORMER_ID>
00002CD200000001

> <PUBCHEM_MMFF94_ENERGY>
18.2466

> <PUBCHEM_FEATURE_SELFOVERLAP>
20.298

> <PUBCHEM_SHAPE_FINGERPRINT>
15310529 11 16845580824217354377
16714656 1 18410854364953725341
20645464 45 17895773828144188160
21040471 1 18266187316603989473
23552423 10 18200595929090538578
29004967 10 16298107575136134290
369184 2 18336557065856618432

> <PUBCHEM_SHAPE_MULTIPOLES>
153.79
3.04
1.31
0.7
1.44
0.01
-0.01
-0.03
-0.45
-0.54
0.03
0.19
0.01
0

> <PUBCHEM_SHAPE_SELFOVERLAP>
313.662

> <PUBCHEM_SHAPE_VOLUME>
88.8

> <PUBCHEM_COORDINATE_TYPE>
2
5
10

$$$$

