13460
  -OEChem-06261214263D

 36 37  0     1  0  0  0  0  0999 V2000
    0.0817    1.6185   -0.4817 O   0  0  0  0  0  0  0  0  0  0  0  0
    0.5687   -2.8782    0.5984 O   0  0  0  0  0  0  0  0  0  0  0  0
   -3.6166   -1.1433   -0.0678 O   0  0  0  0  0  0  0  0  0  0  0  0
    0.4163   -0.6557   -0.1012 N   0  0  0  0  0  0  0  0  0  0  0  0
   -1.5047   -2.0008    0.2064 N   0  0  0  0  0  0  0  0  0  0  0  0
    1.8356   -0.4705    0.0820 C   0  0  0  0  0  0  0  0  0  0  0  0
    2.4954   -0.0149   -1.2223 C   0  0  0  0  0  0  0  0  0  0  0  0
    2.1052    0.5193    1.2179 C   0  0  0  0  0  0  0  0  0  0  0  0
    3.9891    0.2395   -1.0374 C   0  0  0  0  0  0  0  0  0  0  0  0
    3.5994    0.7745    1.3991 C   0  0  0  0  0  0  0  0  0  0  0  0
    4.2556    1.2248    0.0969 C   0  0  0  0  0  0  0  0  0  0  0  0
   -0.3467    0.4638   -0.4678 C   0  0  0  0  0  0  0  0  0  0  0  0
   -1.7529    0.1283   -0.9298 C   0  0  1  0  0  0  0  0  0  0  0  0
   -0.1146   -1.9150    0.2403 C   0  0  0  0  0  0  0  0  0  0  0  0
   -2.4005   -1.0307   -0.2096 C   0  0  0  0  0  0  0  0  0  0  0  0
   -2.6555    1.3608   -0.8992 C   0  0  0  0  0  0  0  0  0  0  0  0
   -2.8751    1.8351    0.5030 C   0  0  0  0  0  0  0  0  0  0  0  0
   -4.0805    1.9445    1.0728 C   0  0  0  0  0  0  0  0  0  0  0  0
    2.3058   -1.4210    0.3624 H   0  0  0  0  0  0  0  0  0  0  0  0
    2.0456    0.9010   -1.6192 H   0  0  0  0  0  0  0  0  0  0  0  0
    2.3525   -0.7809   -1.9949 H   0  0  0  0  0  0  0  0  0  0  0  0
    1.6936    0.1222    2.1547 H   0  0  0  0  0  0  0  0  0  0  0  0
    1.6342    1.4940    1.0766 H   0  0  0  0  0  0  0  0  0  0  0  0
    4.4165    0.6254   -1.9698 H   0  0  0  0  0  0  0  0  0  0  0  0
    4.4969   -0.7091   -0.8232 H   0  0  0  0  0  0  0  0  0  0  0  0
    4.0852   -0.1431    1.7532 H   0  0  0  0  0  0  0  0  0  0  0  0
    3.7542    1.5345    2.1734 H   0  0  0  0  0  0  0  0  0  0  0  0
    5.3359    1.3320    0.2462 H   0  0  0  0  0  0  0  0  0  0  0  0
    3.8713    2.2138   -0.1817 H   0  0  0  0  0  0  0  0  0  0  0  0
   -1.6506   -0.1883   -1.9778 H   0  0  0  0  0  0  0  0  0  0  0  0
   -3.6131    1.1338   -1.3852 H   0  0  0  0  0  0  0  0  0  0  0  0
   -2.2068    2.1783   -1.4769 H   0  0  0  0  0  0  0  0  0  0  0  0
   -1.9082   -2.8577    0.5749 H   0  0  0  0  0  0  0  0  0  0  0  0
   -2.0100    2.1365    1.0874 H   0  0  0  0  0  0  0  0  0  0  0  0
   -4.1761    2.3083    2.0899 H   0  0  0  0  0  0  0  0  0  0  0  0
   -4.9865    1.6749    0.5416 H   0  0  0  0  0  0  0  0  0  0  0  0
  1 12  2  0  0  0  0
  2 14  2  0  0  0  0
  3 15  2  0  0  0  0
  4  6  1  0  0  0  0
  4 12  1  0  0  0  0
  4 14  1  0  0  0  0
  5 14  1  0  0  0  0
  5 15  1  0  0  0  0
  5 33  1  0  0  0  0
  6  7  1  0  0  0  0
  6  8  1  0  0  0  0
  6 19  1  0  0  0  0
  7  9  1  0  0  0  0
  7 20  1  0  0  0  0
  7 21  1  0  0  0  0
  8 10  1  0  0  0  0
  8 22  1  0  0  0  0
  8 23  1  0  0  0  0
  9 11  1  0  0  0  0
  9 24  1  0  0  0  0
  9 25  1  0  0  0  0
 10 11  1  0  0  0  0
 10 26  1  0  0  0  0
 10 27  1  0  0  0  0
 11 28  1  0  0  0  0
 11 29  1  0  0  0  0
 12 13  1  0  0  0  0
 13 15  1  0  0  0  0
 13 16  1  0  0  0  0
 13 30  1  0  0  0  0
 16 17  1  0  0  0  0
 16 31  1  0  0  0  0
 16 32  1  0  0  0  0
 17 18  2  0  0  0  0
 17 34  1  0  0  0  0
 18 35  1  0  0  0  0
 18 36  1  0  0  0  0
M  END
> <PUBCHEM_COMPOUND_CID>
13460

> <PUBCHEM_CONFORMER_RMSD>
0.6

> <PUBCHEM_CONFORMER_DIVERSEORDER>
1
21
28
31
29
22
35
37
33
8
34
27
9
19
32
20
39
11
24
18
25
15
23
7
3
14
10
17
38
5
13
30
16
26
2
4
36
6
12

> <PUBCHEM_MMFF94_PARTIAL_CHARGES>
17
1 -0.57
12 0.57
13 0.12
14 0.69
15 0.57
16 0.14
17 -0.29
18 -0.3
2 -0.57
3 -0.57
33 0.37
34 0.15
35 0.15
36 0.15
4 -0.42
5 -0.49
6 0.3

> <PUBCHEM_EFFECTIVE_ROTOR_COUNT>
4.8

> <PUBCHEM_PHARMACOPHORE_FEATURES>
8
1 1 acceptor
1 13 anion
1 18 hydrophobe
1 2 acceptor
1 3 acceptor
1 5 donor
6 4 5 12 13 14 15 rings
6 6 7 8 9 10 11 rings

> <PUBCHEM_HEAVY_ATOM_COUNT>
18

> <PUBCHEM_ATOM_DEF_STEREO_COUNT>
0

> <PUBCHEM_ATOM_UDEF_STEREO_COUNT>
1

> <PUBCHEM_BOND_DEF_STEREO_COUNT>
0

> <PUBCHEM_BOND_UDEF_STEREO_COUNT>
0

> <PUBCHEM_ISOTOPIC_ATOM_COUNT>
0

> <PUBCHEM_COMPONENT_COUNT>
1

> <PUBCHEM_CACTVS_TAUTO_COUNT>
3

> <PUBCHEM_CONFORMER_ID>
0000349400000001

> <PUBCHEM_MMFF94_ENERGY>
33.8055

> <PUBCHEM_FEATURE_SELFOVERLAP>
40.594

> <PUBCHEM_SHAPE_FINGERPRINT>
10493431 412 18411129269042397545
10498660 4 18412552036803981253
11132069 177 18201442497077255229
11543360 7 16298684818630323957
12173636 292 18336828688326370101
12236239 1 17203057287899274278
12346645 44 18410574011190442699
12382932 28 18342185517535024601
12390115 104 18335405859971312920
12403814 3 17275108340465004349
13140716 1 18197500838413338019
13380535 21 18338793545685696903
13538477 17 17487907704988133130
13764800 53 18409725175276189489
13965767 371 17914908753509699404
14123255 52 18265331883905228089
14178342 30 18412267254849638905
14614273 12 18059308629197232143
15209294 21 18335136514298387145
15219456 202 17894912919187687084
15309172 13 18201720669171296021
15534591 1 18113619027689587477
16945 1 18268997496531388719
1741750 31 18408605876549366834
18186145 218 18336827588904309092
19049666 15 18186799180044274170
20112054 60 18339646637558989495
20510252 161 18336828580698739617
20671657 1 18120655991980095579
21501502 16 18339648957116077539
2334 1 18341900735528746959
23402539 116 18266191538546500174
23557571 272 18261381201461625052
23559900 14 18334853949059333910
25 1 18187362185731965596
2748010 2 18270682107538623487
276578 36 18339637974646876664
350125 39 17908700979420114052
43471831 8 18272660059852614682
458136 41 18269545216467299466
5104073 3 18413395328421364672
633830 44 18187650227735082964
6442390 28 18337940251674726011
7364860 26 18120098543990732198
77492 1 17203057287825486230
81228 2 18126852590327010154
90316 7 17702965689574947044

> <PUBCHEM_SHAPE_MULTIPOLES>
342.86
7.39
2.31
1.18
1.64
1.01
-0.05
-4.02
-0.63
-1.59
-0.6
0.54
-0.3
-0.14

> <PUBCHEM_SHAPE_SELFOVERLAP>
711.002

> <PUBCHEM_SHAPE_VOLUME>
190.7

> <PUBCHEM_COORDINATE_TYPE>
2
5
10

$$$$

