3815
  -OEChem-06251223412D

 37 42  0     0  0  0  0  0  0999 V2000
    6.3326   -1.7552    0.0000 O   0  0  0  0  0  0  0  0  0  0  0  0
    2.6067    1.1671    0.0000 N   0  0  0  0  0  0  0  0  0  0  0  0
    2.6067   -1.1671    0.0000 N   0  0  0  0  0  0  0  0  0  0  0  0
    6.6056    0.0000    0.0000 N   0  0  0  0  0  0  0  0  0  0  0  0
    5.0757    0.5000    0.0000 C   0  0  0  0  0  0  0  0  0  0  0  0
    4.2097    1.0000    0.0000 C   0  0  0  0  0  0  0  0  0  0  0  0
    4.2097   -1.0000    0.0000 C   0  0  0  0  0  0  0  0  0  0  0  0
    3.3437    0.5000    0.0000 C   0  0  0  0  0  0  0  0  0  0  0  0
    5.0757   -0.5000    0.0000 C   0  0  0  0  0  0  0  0  0  0  0  0
    3.3437   -0.5000    0.0000 C   0  0  0  0  0  0  0  0  0  0  0  0
    6.0220    0.8047    0.0000 C   0  0  0  0  0  0  0  0  0  0  0  0
    4.0005    1.9718    0.0000 C   0  0  0  0  0  0  0  0  0  0  0  0
    4.0005   -1.9718    0.0000 C   0  0  0  0  0  0  0  0  0  0  0  0
    3.0118    2.0749    0.0000 C   0  0  0  0  0  0  0  0  0  0  0  0
    3.0118   -2.0749    0.0000 C   0  0  0  0  0  0  0  0  0  0  0  0
    6.0220   -0.8047    0.0000 C   0  0  0  0  0  0  0  0  0  0  0  0
    4.6213    2.8006    0.0000 C   0  0  0  0  0  0  0  0  0  0  0  0
    4.6213   -2.8006    0.0000 C   0  0  0  0  0  0  0  0  0  0  0  0
    2.5753    3.0138    0.0000 C   0  0  0  0  0  0  0  0  0  0  0  0
    2.5753   -3.0138    0.0000 C   0  0  0  0  0  0  0  0  0  0  0  0
    4.2066    3.7494    0.0000 C   0  0  0  0  0  0  0  0  0  0  0  0
    4.2066   -3.7494    0.0000 C   0  0  0  0  0  0  0  0  0  0  0  0
    3.1767    3.8567    0.0000 C   0  0  0  0  0  0  0  0  0  0  0  0
    3.1767   -3.8567    0.0000 C   0  0  0  0  0  0  0  0  0  0  0  0
    6.5593    1.1140    0.0000 H   0  0  0  0  0  0  0  0  0  0  0  0
    5.7709    1.3716    0.0000 H   0  0  0  0  0  0  0  0  0  0  0  0
    2.0000    1.0392    0.0000 H   0  0  0  0  0  0  0  0  0  0  0  0
    2.0000   -1.0392    0.0000 H   0  0  0  0  0  0  0  0  0  0  0  0
    7.2256    0.0000    0.0000 H   0  0  0  0  0  0  0  0  0  0  0  0
    5.2371    2.7292    0.0000 H   0  0  0  0  0  0  0  0  0  0  0  0
    5.2371   -2.7292    0.0000 H   0  0  0  0  0  0  0  0  0  0  0  0
    1.9579    3.0710    0.0000 H   0  0  0  0  0  0  0  0  0  0  0  0
    1.9579   -3.0710    0.0000 H   0  0  0  0  0  0  0  0  0  0  0  0
    4.5725    4.2499    0.0000 H   0  0  0  0  0  0  0  0  0  0  0  0
    4.5725   -4.2499    0.0000 H   0  0  0  0  0  0  0  0  0  0  0  0
    2.9219    4.4219    0.0000 H   0  0  0  0  0  0  0  0  0  0  0  0
    2.9219   -4.4219    0.0000 H   0  0  0  0  0  0  0  0  0  0  0  0
  1 16  2  0  0  0  0
  2  8  1  0  0  0  0
  2 14  1  0  0  0  0
  2 27  1  0  0  0  0
  3 10  1  0  0  0  0
  3 15  1  0  0  0  0
  3 28  1  0  0  0  0
  4 11  1  0  0  0  0
  4 16  1  0  0  0  0
  4 29  1  0  0  0  0
  5  6  2  0  0  0  0
  5  9  1  0  0  0  0
  5 11  1  0  0  0  0
  6  8  1  0  0  0  0
  6 12  1  0  0  0  0
  7  9  2  0  0  0  0
  7 10  1  0  0  0  0
  7 13  1  0  0  0  0
  8 10  2  0  0  0  0
  9 16  1  0  0  0  0
 11 25  1  0  0  0  0
 11 26  1  0  0  0  0
 12 14  1  0  0  0  0
 12 17  2  0  0  0  0
 13 15  1  0  0  0  0
 13 18  2  0  0  0  0
 14 19  2  0  0  0  0
 15 20  2  0  0  0  0
 17 21  1  0  0  0  0
 17 30  1  0  0  0  0
 18 22  1  0  0  0  0
 18 31  1  0  0  0  0
 19 23  1  0  0  0  0
 19 32  1  0  0  0  0
 20 24  1  0  0  0  0
 20 33  1  0  0  0  0
 21 23  2  0  0  0  0
 21 34  1  0  0  0  0
 22 24  2  0  0  0  0
 22 35  1  0  0  0  0
 23 36  1  0  0  0  0
 24 37  1  0  0  0  0
M  END
> <PUBCHEM_COMPOUND_CID>
3815

> <PUBCHEM_COMPOUND_CANONICALIZED>
1

> <PUBCHEM_CACTVS_COMPLEXITY>
551

> <PUBCHEM_CACTVS_HBOND_ACCEPTOR>
1

> <PUBCHEM_CACTVS_HBOND_DONOR>
3

> <PUBCHEM_CACTVS_ROTATABLE_BOND>
0

> <PUBCHEM_CACTVS_SUBSKEYS>
AAADccB7IAAAAAAAAAAAAAAAAAAAAWLFgAAwYMAAAAAAAFgB/gAAHgAQAAAADAjBngQwwPLJkACoAyVyVACCgCQlEiAImaE4dNgIYPLAlZGUIQhglgDIyQccicCeyAACQAASACCQAASAACQAQAAAAAAAAA==

> <PUBCHEM_IUPAC_INCHI>
InChI=1S/C20H13N3O/c24-20-17-12(9-21-20)15-10-5-1-3-7-13(10)22-18(15)19-16(17)11-6-2-4-8-14(11)23-19/h1-8,22-23H,9H2,(H,21,24)

> <PUBCHEM_IUPAC_INCHIKEY>
MEXUTNIFSHFQRG-UHFFFAOYSA-N

> <PUBCHEM_XLOGP3_AA>
3.7

> <PUBCHEM_EXACT_MASS>
311.105862

> <PUBCHEM_MOLECULAR_FORMULA>
C20H13N3O

> <PUBCHEM_MOLECULAR_WEIGHT>
311.33672

> <PUBCHEM_OPENEYE_CAN_SMILES>
C1C2=C3C4=CC=CC=C4NC3=C5C(=C2C(=O)N1)C6=CC=CC=C6N5

> <PUBCHEM_OPENEYE_ISO_SMILES>
C1C2=C3C4=CC=CC=C4NC3=C5C(=C2C(=O)N1)C6=CC=CC=C6N5

> <PUBCHEM_CACTVS_TPSA>
60.7

> <PUBCHEM_MONOISOTOPIC_WEIGHT>
311.105862

> <PUBCHEM_TOTAL_CHARGE>
0

> <PUBCHEM_HEAVY_ATOM_COUNT>
24

> <PUBCHEM_ATOM_DEF_STEREO_COUNT>
0

> <PUBCHEM_ATOM_UDEF_STEREO_COUNT>
0

> <PUBCHEM_BOND_DEF_STEREO_COUNT>
0

> <PUBCHEM_BOND_UDEF_STEREO_COUNT>
0

> <PUBCHEM_ISOTOPIC_ATOM_COUNT>
0

> <PUBCHEM_COMPONENT_COUNT>
1

> <PUBCHEM_CACTVS_TAUTO_COUNT>
105

> <PUBCHEM_COORDINATE_TYPE>
1
5
255

> <PUBCHEM_BONDANNOTATIONS>
12  14  8
12  17  8
13  15  8
13  18  8
14  19  8
15  20  8
17  21  8
18  22  8
19  23  8
2  14  8
2  8  8
20  24  8
21  23  8
22  24  8
3  10  8
3  15  8
5  6  8
5  9  8
6  12  8
6  8  8
7  10  8
7  13  8
7  9  8
8  10  8

$$$$

