51090884
  -OEChem-06241223003D

 46 47  0     0  0  0  0  0  0999 V2000
   -5.1863   -0.1663   -0.3889 O   0  0  0  0  0  0  0  0  0  0  0  0
   -0.9027    2.7952    1.3625 O   0  0  0  0  0  0  0  0  0  0  0  0
   -6.2033   -2.3745    0.9963 O   0  0  0  0  0  0  0  0  0  0  0  0
   -1.5325    2.0516   -0.7426 N   0  0  0  0  0  0  0  0  0  0  0  0
    4.2308   -0.6400   -0.1075 N   0  0  0  0  0  0  0  0  0  0  0  0
    4.3266   -1.7271   -0.8919 N   0  0  0  0  0  0  0  0  0  0  0  0
   -3.9329    1.8682   -0.2255 C   0  0  0  0  0  0  0  0  0  0  0  0
   -2.8037    2.7212   -0.7880 C   0  0  0  0  0  0  0  0  0  0  0  0
   -4.1050    0.5500   -0.9705 C   0  0  0  0  0  0  0  0  0  0  0  0
    0.6149    1.4148    0.2269 C   0  0  0  0  0  0  0  0  0  0  0  0
    3.0328    0.0416    0.0032 C   0  0  0  0  0  0  0  0  0  0  0  0
   -0.6733    2.1452    0.3460 C   0  0  0  0  0  0  0  0  0  0  0  0
    1.7353    1.8560    0.9311 C   0  0  0  0  0  0  0  0  0  0  0  0
    0.7035    0.2869   -0.5890 C   0  0  0  0  0  0  0  0  0  0  0  0
    2.9443    1.1694    0.8193 C   0  0  0  0  0  0  0  0  0  0  0  0
    1.9125   -0.3997   -0.7008 C   0  0  0  0  0  0  0  0  0  0  0  0
   -5.3990   -1.4104   -1.0420 C   0  0  0  0  0  0  0  0  0  0  0  0
    5.3937   -0.3132    0.5259 C   0  0  0  0  0  0  0  0  0  0  0  0
    6.3142   -1.2519    0.1283 C   0  0  0  0  0  0  0  0  0  0  0  0
   -6.5452   -2.1358   -0.3637 C   0  0  0  0  0  0  0  0  0  0  0  0
    5.6014   -2.0965   -0.7437 C   0  0  0  0  0  0  0  0  0  0  0  0
    7.7275   -1.3500    0.5258 C   0  0  0  0  0  0  0  0  0  0  0  0
   -7.2537   -3.0347    1.6889 C   0  0  0  0  0  0  0  0  0  0  0  0
   -4.8728    2.4324   -0.2629 H   0  0  0  0  0  0  0  0  0  0  0  0
   -3.7535    1.6567    0.8365 H   0  0  0  0  0  0  0  0  0  0  0  0
   -3.0025    2.9715   -1.8356 H   0  0  0  0  0  0  0  0  0  0  0  0
   -2.7368    3.6602   -0.2277 H   0  0  0  0  0  0  0  0  0  0  0  0
   -4.3192    0.7427   -2.0283 H   0  0  0  0  0  0  0  0  0  0  0  0
   -3.1939   -0.0546   -0.8982 H   0  0  0  0  0  0  0  0  0  0  0  0
   -1.2556    1.5458   -1.5769 H   0  0  0  0  0  0  0  0  0  0  0  0
    1.6865    2.7352    1.5682 H   0  0  0  0  0  0  0  0  0  0  0  0
   -0.1520   -0.1086   -1.1284 H   0  0  0  0  0  0  0  0  0  0  0  0
    3.7770    1.5637    1.3911 H   0  0  0  0  0  0  0  0  0  0  0  0
    1.9352   -1.2774   -1.3416 H   0  0  0  0  0  0  0  0  0  0  0  0
   -4.4860   -2.0127   -0.9677 H   0  0  0  0  0  0  0  0  0  0  0  0
   -5.6372   -1.2409   -2.0978 H   0  0  0  0  0  0  0  0  0  0  0  0
    5.5190    0.5245    1.1966 H   0  0  0  0  0  0  0  0  0  0  0  0
   -7.4482   -1.5153   -0.3991 H   0  0  0  0  0  0  0  0  0  0  0  0
   -6.7381   -3.0874   -0.8709 H   0  0  0  0  0  0  0  0  0  0  0  0
    5.9552   -2.9663   -1.2789 H   0  0  0  0  0  0  0  0  0  0  0  0
    8.3104   -0.5418    0.0724 H   0  0  0  0  0  0  0  0  0  0  0  0
    7.8315   -1.2794    1.6135 H   0  0  0  0  0  0  0  0  0  0  0  0
    8.1658   -2.3019    0.2090 H   0  0  0  0  0  0  0  0  0  0  0  0
   -6.9363   -3.1959    2.7226 H   0  0  0  0  0  0  0  0  0  0  0  0
   -7.4629   -4.0069    1.2323 H   0  0  0  0  0  0  0  0  0  0  0  0
   -8.1575   -2.4178    1.6937 H   0  0  0  0  0  0  0  0  0  0  0  0
  1  9  1  0  0  0  0
  1 17  1  0  0  0  0
  2 12  2  0  0  0  0
  3 20  1  0  0  0  0
  3 23  1  0  0  0  0
  4  8  1  0  0  0  0
  4 12  1  0  0  0  0
  4 30  1  0  0  0  0
  5  6  1  0  0  0  0
  5 11  1  0  0  0  0
  5 18  1  0  0  0  0
  6 21  2  0  0  0  0
  7  8  1  0  0  0  0
  7  9  1  0  0  0  0
  7 24  1  0  0  0  0
  7 25  1  0  0  0  0
  8 26  1  0  0  0  0
  8 27  1  0  0  0  0
  9 28  1  0  0  0  0
  9 29  1  0  0  0  0
 10 12  1  0  0  0  0
 10 13  2  0  0  0  0
 10 14  1  0  0  0  0
 11 15  2  0  0  0  0
 11 16  1  0  0  0  0
 13 15  1  0  0  0  0
 13 31  1  0  0  0  0
 14 16  2  0  0  0  0
 14 32  1  0  0  0  0
 15 33  1  0  0  0  0
 16 34  1  0  0  0  0
 17 20  1  0  0  0  0
 17 35  1  0  0  0  0
 17 36  1  0  0  0  0
 18 19  2  0  0  0  0
 18 37  1  0  0  0  0
 19 21  1  0  0  0  0
 19 22  1  0  0  0  0
 20 38  1  0  0  0  0
 20 39  1  0  0  0  0
 21 40  1  0  0  0  0
 22 41  1  0  0  0  0
 22 42  1  0  0  0  0
 22 43  1  0  0  0  0
 23 44  1  0  0  0  0
 23 45  1  0  0  0  0
 23 46  1  0  0  0  0
M  END
> <PUBCHEM_COMPOUND_CID>
51090884

> <PUBCHEM_CONFORMER_RMSD>
1

> <PUBCHEM_CONFORMER_DIVERSEORDER>
1
66
30
24
55
35
70
56
14
38
63
64
28
3
2
22
49
50
5
23
15
47
60
71
16
31
52
51
33
54
17
53
21
32
61
19
69
46
11
25
59
67
12
40
36
4
26
42
37
7
10
62
29
43
9
27
58
8
68
13
41
20
34
39
48
18
45
65
57
44
6

> <PUBCHEM_MMFF94_PARTIAL_CHARGES>
29
1 -0.56
10 0.09
11 -0.02
12 0.54
13 -0.15
14 -0.15
15 -0.15
16 -0.15
17 0.28
18 -0.3
19 -0.18
2 -0.57
20 0.28
21 0.14
22 0.18
23 0.28
3 -0.56
30 0.37
31 0.15
32 0.15
33 0.15
34 0.15
37 0.15
4 -0.73
40 0.15
5 0.59
6 -0.71
8 0.3
9 0.28

> <PUBCHEM_EFFECTIVE_ROTOR_COUNT>
10

> <PUBCHEM_PHARMACOPHORE_FEATURES>
7
1 1 acceptor
1 2 acceptor
1 3 acceptor
1 4 donor
1 6 acceptor
5 5 6 18 19 21 rings
6 10 11 13 14 15 16 rings

> <PUBCHEM_HEAVY_ATOM_COUNT>
23

> <PUBCHEM_ATOM_DEF_STEREO_COUNT>
0

> <PUBCHEM_ATOM_UDEF_STEREO_COUNT>
0

> <PUBCHEM_BOND_DEF_STEREO_COUNT>
0

> <PUBCHEM_BOND_UDEF_STEREO_COUNT>
0

> <PUBCHEM_ISOTOPIC_ATOM_COUNT>
0

> <PUBCHEM_COMPONENT_COUNT>
1

> <PUBCHEM_CACTVS_TAUTO_COUNT>
2

> <PUBCHEM_CONFORMER_ID>
030B95C400000001

> <PUBCHEM_MMFF94_ENERGY>
49.9582

> <PUBCHEM_FEATURE_SELFOVERLAP>
35.524

> <PUBCHEM_SHAPE_FINGERPRINT>
11273773 42 12607138335504078983
11756154 5 18342181025168538403
11796584 16 18267029546716402820
11809386 21 18272098252913862289
12643181 29 18340211886174580053
12717326 120 17916875608260539090
13103583 49 16153710878193509877
1361 4 18269839877537609946
13631057 29 18411986892163930217
13740256 8 18261117408433027988
14123256 34 18411417293833548623
14211702 104 18263641921780440046
14251751 18 18409449210536862941
14251764 30 18341329994852628295
14420673 8 18341891867323068411
14919807 6 9367073324266599154
14950920 106 16081660959335992707
15510800 12 18342459193151975547
15803439 3 14189580706888670129
17780758 139 17676768760328916849
20281389 69 10087623923716423692
20621476 21 18410292510691822127
21049683 271 18334016073997461784
21054139 6 18059576936036392954
21095086 4 17916014661092970051
21196832 93 18130217156064096122
21267235 1 17822295743131160436
21344244 246 17845364458580433572
21623969 137 17531251698990265230
21796203 349 17749382603680693105
2260408 40 15864337065181976156
23402539 116 16987992954945531828
23424782 7 18410857642894987096
23424784 1240 18041272278973270142
23559900 14 18262252125760361040
2748736 6 9078848355183715695
2835820 33 18412549787258827162
2838139 119 10447633695620133965
393628 194 9367351457564652107
4073 2 18116432733690035268
439807 62 18342455933392856943
465052 167 18113900455411082692
5104073 3 17822016431758145136
54583773 228 18342734075997354580
5486654 36 18334573552003824593
56633871 153 18191022306092870415
636775 8 18261666074195511998
6431902 208 18335707165086173719
8863177 126 18261399914085331999
999808 66 18408885140114032783

> <PUBCHEM_SHAPE_MULTIPOLES>
440.78
20.55
3.48
1.18
5.5
0.04
-0.23
-24.18
-2.61
5.44
-0.82
1.21
-0.27
2.72

> <PUBCHEM_SHAPE_SELFOVERLAP>
909.606

> <PUBCHEM_SHAPE_VOLUME>
254

> <PUBCHEM_COORDINATE_TYPE>
2
5
10

$$$$

