12692
  -OEChem-06261207152D

  8  7  0     0  0  0  0  0  0999 V2000
    4.5981    0.2500    0.0000 Br  0  0  0  0  0  0  0  0  0  0  0  0
    2.0000    0.7500    0.0000 Cl  0  0  0  0  0  0  0  0  0  0  0  0
    2.8660   -0.7500    0.0000 Cl  0  0  0  0  0  0  0  0  0  0  0  0
    2.8660    0.2500    0.0000 C   0  0  0  0  0  0  0  0  0  0  0  0
    3.7320    0.7500    0.0000 C   0  0  0  0  0  0  0  0  0  0  0  0
    2.8660    0.8700    0.0000 H   0  0  0  0  0  0  0  0  0  0  0  0
    4.1306    1.2250    0.0000 H   0  0  0  0  0  0  0  0  0  0  0  0
    3.3335    1.2250    0.0000 H   0  0  0  0  0  0  0  0  0  0  0  0
  1  5  1  0  0  0  0
  2  4  1  0  0  0  0
  3  4  1  0  0  0  0
  4  5  1  0  0  0  0
  4  6  1  0  0  0  0
  5  7  1  0  0  0  0
  5  8  1  0  0  0  0
M  END
> <PUBCHEM_COMPOUND_CID>
12692

> <PUBCHEM_COMPOUND_CANONICALIZED>
1

> <PUBCHEM_CACTVS_COMPLEXITY>
21.6

> <PUBCHEM_CACTVS_HBOND_ACCEPTOR>
0

> <PUBCHEM_CACTVS_HBOND_DONOR>
0

> <PUBCHEM_CACTVS_ROTATABLE_BOND>
1

> <PUBCHEM_CACTVS_SUBSKEYS>
AAADcQBAAAAGEAAAAAAAAAAAAAAAAAAAAAAAAAAAAAAAAAAAAAAAGAJAAAABQAOAAMAAAAAAAAAAAAAAAAAAAAAAAAAAAAAAAAAAAAAAAAAAAAAAAAAAAAAAAAAAAAAAAAAAAAAAAAAAAAAAAAAAAAAAAA==

> <PUBCHEM_IUPAC_OPENEYE_NAME>
2-bromo-1,1-dichloro-ethane

> <PUBCHEM_IUPAC_CAS_NAME>
2-bromo-1,1-dichloroethane

> <PUBCHEM_IUPAC_NAME>
2-bromo-1,1-dichloroethane

> <PUBCHEM_IUPAC_SYSTEMATIC_NAME>
2-bromanyl-1,1-bis(chloranyl)ethane

> <PUBCHEM_IUPAC_TRADITIONAL_NAME>
2-bromo-1,1-dichloro-ethane

> <PUBCHEM_IUPAC_INCHI>
InChI=1S/C2H3BrCl2/c3-1-2(4)5/h2H,1H2

> <PUBCHEM_IUPAC_INCHIKEY>
CTPJWJHJNKUPDY-UHFFFAOYSA-N

> <PUBCHEM_XLOGP3_AA>
2.3

> <PUBCHEM_EXACT_MASS>
175.879518

> <PUBCHEM_MOLECULAR_FORMULA>
C2H3BrCl2

> <PUBCHEM_MOLECULAR_WEIGHT>
177.85522

> <PUBCHEM_OPENEYE_CAN_SMILES>
C(C(Cl)Cl)Br

> <PUBCHEM_OPENEYE_ISO_SMILES>
C(C(Cl)Cl)Br

> <PUBCHEM_CACTVS_TPSA>
0

> <PUBCHEM_MONOISOTOPIC_WEIGHT>
175.879518

> <PUBCHEM_TOTAL_CHARGE>
0

> <PUBCHEM_HEAVY_ATOM_COUNT>
5

> <PUBCHEM_ATOM_DEF_STEREO_COUNT>
0

> <PUBCHEM_ATOM_UDEF_STEREO_COUNT>
0

> <PUBCHEM_BOND_DEF_STEREO_COUNT>
0

> <PUBCHEM_BOND_UDEF_STEREO_COUNT>
0

> <PUBCHEM_ISOTOPIC_ATOM_COUNT>
0

> <PUBCHEM_COMPONENT_COUNT>
1

> <PUBCHEM_CACTVS_TAUTO_COUNT>
1

> <PUBCHEM_COORDINATE_TYPE>
1
5
255

$$$$

