17395366
  -OEChem-06241222493D

 42 45  0     1  0  0  0  0  0999 V2000
    1.6212   -0.2983   -0.9352 O   0  0  0  0  0  0  0  0  0  0  0  0
   -1.5041   -1.0273   -0.9643 N   0  0  1  0  0  0  0  0  0  0  0  0
    0.4943    1.6342   -0.9484 N   0  0  0  0  0  0  0  0  0  0  0  0
    1.7224    1.8599   -0.3551 N   0  0  0  0  0  0  0  0  0  0  0  0
   -1.1092   -2.2841   -0.3299 C   0  0  0  0  0  0  0  0  0  0  0  0
   -2.3337   -3.0609    0.1302 C   0  0  0  0  0  0  0  0  0  0  0  0
   -3.1245   -2.2286    1.1295 C   0  0  0  0  0  0  0  0  0  0  0  0
   -3.3679   -0.8337    0.6060 C   0  0  0  0  0  0  0  0  0  0  0  0
   -2.5439   -0.2821   -0.4054 C   0  0  0  0  0  0  0  0  0  0  0  0
   -0.5977   -0.4449   -1.9433 C   0  0  0  0  0  0  0  0  0  0  0  0
   -4.4078   -0.0810    1.1793 C   0  0  0  0  0  0  0  0  0  0  0  0
   -2.8409    1.0293   -0.8260 C   0  0  0  0  0  0  0  0  0  0  0  0
   -4.6666    1.2138    0.7448 C   0  0  0  0  0  0  0  0  0  0  0  0
   -3.8853    1.7675   -0.2602 C   0  0  0  0  0  0  0  0  0  0  0  0
    0.4794    0.3620   -1.2710 C   0  0  0  0  0  0  0  0  0  0  0  0
   -5.7759    2.0020    1.3532 C   0  0  0  0  0  0  0  0  0  0  0  0
    2.3459    0.7050   -0.3688 C   0  0  0  0  0  0  0  0  0  0  0  0
    3.6489    0.3454    0.1106 C   0  0  0  0  0  0  0  0  0  0  0  0
    4.1011   -0.9679   -0.0190 C   0  0  0  0  0  0  0  0  0  0  0  0
    4.4636    1.3079    0.7071 C   0  0  0  0  0  0  0  0  0  0  0  0
    5.3678   -1.3186    0.4479 C   0  0  0  0  0  0  0  0  0  0  0  0
    5.7304    0.9569    1.1738 C   0  0  0  0  0  0  0  0  0  0  0  0
    6.1824   -0.3564    1.0442 C   0  0  0  0  0  0  0  0  0  0  0  0
   -0.4482   -2.0756    0.5207 H   0  0  0  0  0  0  0  0  0  0  0  0
   -0.5431   -2.9054   -1.0338 H   0  0  0  0  0  0  0  0  0  0  0  0
   -2.0332   -4.0094    0.5889 H   0  0  0  0  0  0  0  0  0  0  0  0
   -2.9644   -3.3026   -0.7352 H   0  0  0  0  0  0  0  0  0  0  0  0
   -2.5727   -2.1539    2.0745 H   0  0  0  0  0  0  0  0  0  0  0  0
   -4.0777   -2.7300    1.3344 H   0  0  0  0  0  0  0  0  0  0  0  0
   -1.1184    0.1548   -2.6975 H   0  0  0  0  0  0  0  0  0  0  0  0
   -0.1161   -1.2464   -2.5189 H   0  0  0  0  0  0  0  0  0  0  0  0
   -5.0171   -0.5201    1.9666 H   0  0  0  0  0  0  0  0  0  0  0  0
   -2.2711    1.5259   -1.6056 H   0  0  0  0  0  0  0  0  0  0  0  0
   -4.0741    2.7767   -0.6175 H   0  0  0  0  0  0  0  0  0  0  0  0
   -6.7131    1.8020    0.8244 H   0  0  0  0  0  0  0  0  0  0  0  0
   -5.9069    1.7465    2.4103 H   0  0  0  0  0  0  0  0  0  0  0  0
   -5.5708    3.0770    1.3069 H   0  0  0  0  0  0  0  0  0  0  0  0
    3.4957   -1.7457   -0.4774 H   0  0  0  0  0  0  0  0  0  0  0  0
    4.1319    2.3374    0.8188 H   0  0  0  0  0  0  0  0  0  0  0  0
    5.7203   -2.3411    0.3474 H   0  0  0  0  0  0  0  0  0  0  0  0
    6.3650    1.7060    1.6382 H   0  0  0  0  0  0  0  0  0  0  0  0
    7.1687   -0.6294    1.4077 H   0  0  0  0  0  0  0  0  0  0  0  0
  1 15  1  0  0  0  0
  1 17  1  0  0  0  0
  2  5  1  0  0  0  0
  2  9  1  0  0  0  0
  2 10  1  0  0  0  0
  3  4  1  0  0  0  0
  3 15  2  0  0  0  0
  4 17  2  0  0  0  0
  5  6  1  0  0  0  0
  5 24  1  0  0  0  0
  5 25  1  0  0  0  0
  6  7  1  0  0  0  0
  6 26  1  0  0  0  0
  6 27  1  0  0  0  0
  7  8  1  0  0  0  0
  7 28  1  0  0  0  0
  7 29  1  0  0  0  0
  8  9  2  0  0  0  0
  8 11  1  0  0  0  0
  9 12  1  0  0  0  0
 10 15  1  0  0  0  0
 10 30  1  0  0  0  0
 10 31  1  0  0  0  0
 11 13  2  0  0  0  0
 11 32  1  0  0  0  0
 12 14  2  0  0  0  0
 12 33  1  0  0  0  0
 13 14  1  0  0  0  0
 13 16  1  0  0  0  0
 14 34  1  0  0  0  0
 16 35  1  0  0  0  0
 16 36  1  0  0  0  0
 16 37  1  0  0  0  0
 17 18  1  0  0  0  0
 18 19  2  0  0  0  0
 18 20  1  0  0  0  0
 19 21  1  0  0  0  0
 19 38  1  0  0  0  0
 20 22  2  0  0  0  0
 20 39  1  0  0  0  0
 21 23  2  0  0  0  0
 21 40  1  0  0  0  0
 22 23  1  0  0  0  0
 22 41  1  0  0  0  0
 23 42  1  0  0  0  0
M  END
> <PUBCHEM_COMPOUND_CID>
17395366

> <PUBCHEM_CONFORMER_RMSD>
0.6

> <PUBCHEM_CONFORMER_DIVERSEORDER>
1
4
16
20
27
35
30
5
24
11
13
18
9
14
36
28
6
17
23
12
7
33
2
25
15
10
3
8
31
19
34
22
26
32
29
21

> <PUBCHEM_MMFF94_PARTIAL_CHARGES>
30
1 -0.28
10 0.55
11 -0.15
12 -0.15
13 -0.14
14 -0.15
15 0.3
16 0.14
17 0.43
18 0.05
19 -0.15
2 -0.84
20 -0.15
21 -0.15
22 -0.15
23 -0.15
3 -0.34
32 0.15
33 0.15
34 0.15
38 0.15
39 0.15
4 -0.34
40 0.15
41 0.15
42 0.15
5 0.37
7 0.14
8 -0.14
9 0.1

> <PUBCHEM_EFFECTIVE_ROTOR_COUNT>
3.8

> <PUBCHEM_PHARMACOPHORE_FEATURES>
5
1 2 cation
5 1 3 4 15 17 rings
6 18 19 20 21 22 23 rings
6 2 5 6 7 8 9 rings
6 8 9 11 12 13 14 rings

> <PUBCHEM_HEAVY_ATOM_COUNT>
23

> <PUBCHEM_ATOM_DEF_STEREO_COUNT>
0

> <PUBCHEM_ATOM_UDEF_STEREO_COUNT>
0

> <PUBCHEM_BOND_DEF_STEREO_COUNT>
0

> <PUBCHEM_BOND_UDEF_STEREO_COUNT>
0

> <PUBCHEM_ISOTOPIC_ATOM_COUNT>
0

> <PUBCHEM_COMPONENT_COUNT>
1

> <PUBCHEM_CACTVS_TAUTO_COUNT>
1

> <PUBCHEM_CONFORMER_ID>
01096EA600000001

> <PUBCHEM_MMFF94_ENERGY>
57.3396

> <PUBCHEM_FEATURE_SELFOVERLAP>
25.396

> <PUBCHEM_SHAPE_FINGERPRINT>
10042902 136 12965974872481443345
10319926 262 18339629097118618631
10692045 39 18115579503792434683
10928967 22 16415213247380851266
11036077 4 18343026579579837955
11089746 13 5473140735424276134
11370993 144 18334860523984298718
11405975 8 18411702050128233336
11552529 35 18191314771157492870
12107183 9 18340485659620794896
12403260 363 18336263423870561103
12467345 10 18412824707039154586
12596602 18 18334576828335390994
12633257 1 18342733005648443477
12670546 177 10375877389643823928
12892183 10 18193557757639673260
13004483 165 17683807610295100199
13103583 49 18201999910796492634
13583140 156 17677055620693502026
13675066 3 18335703823685655948
13941219 33 18130794494569162530
14251758 9 17385997391346019374
14251764 30 13973955498333936897
14341114 176 18411698803375764992
14420673 8 18271804687541546562
14466204 15 18261108638241776081
14480069 147 15409506574582707130
14528608 73 7709458321103775752
14951699 99 18261674762534920296
15209289 33 17418093191579177882
15238133 3 18336254708839170084
15295992 7 17968099685776425953
15348495 7 18409172074104764824
15537594 2 17274827973631995674
16110190 28 18343579625328157524
16994733 274 15936960968824104091
17780758 139 18343027670506481072
1813 80 16630524038169387126
19141452 34 18341897385390718630
19377110 9 17489306314207510668
19438510 23 17024574811130039209
20300324 65 8646777698236630223
20429552 37 18262232347831335630
20567600 254 18338520858861219205
20871999 31 8718830860469325191
21033648 29 17676475151262297965
21065198 48 18270113496490907548
21403212 168 18272092755550824289
21637258 2 15267337410155282161
22122407 14 16877662340265052328
235170 7 11599735003602979306
23559900 14 18190437498459484606
23622692 88 18202562891120672693
255183 451 9149442499641057433
2838139 119 16298674974591629545
3117164 225 18409729539095019320
312425 54 18343306959571737394
351380 3 16128656357870007192
3633792 109 18129681737599979503
3737641 26 16987729050821973570
4409770 3 17630624498804442141
445580 182 18410022017914748458
5104073 3 18339938013247727248
5364581 5 18193852435726550616
5385378 56 18192984044830816691
5486654 36 17917428670735163410
5924683 9 18263087617443139727
7097593 13 18127968616167278253
7226269 152 17968097559504032984
7970288 3 15195279798842624897
8217 86 10663807573261983753
9981440 41 17749102323005655435

> <PUBCHEM_SHAPE_MULTIPOLES>
452.52
13.97
2.51
1.39
12.12
1.2
0.17
-3.84
-8.04
-2.56
-0.37
-0.46
-0.1
-0.13

> <PUBCHEM_SHAPE_SELFOVERLAP>
992.014

> <PUBCHEM_SHAPE_VOLUME>
245.4

> <PUBCHEM_COORDINATE_TYPE>
2
5
10

$$$$

