13722
  -OEChem-06241222403D

 35 36  0     0  0  0  0  0  0999 V2000
    0.0177   -0.9308   -0.4872 S   0  0  0  0  0  0  0  0  0  0  0  0
   -0.9096    0.3858   -0.2176 O   0  0  0  0  0  0  0  0  0  0  0  0
   -0.0269   -1.2619   -1.8981 O   0  0  0  0  0  0  0  0  0  0  0  0
   -0.2964   -1.9144    0.5320 O   0  0  0  0  0  0  0  0  0  0  0  0
   -2.3189    0.2766   -0.3854 C   0  0  0  0  0  0  0  0  0  0  0  0
   -2.8685   -0.7828    0.5690 C   0  0  0  0  0  0  0  0  0  0  0  0
   -2.9707    1.6384   -0.1503 C   0  0  0  0  0  0  0  0  0  0  0  0
   -4.3895   -0.8687    0.4965 C   0  0  0  0  0  0  0  0  0  0  0  0
   -4.4918    1.5527   -0.2228 C   0  0  0  0  0  0  0  0  0  0  0  0
   -5.0409    0.4927    0.7292 C   0  0  0  0  0  0  0  0  0  0  0  0
    1.6609   -0.3686   -0.1725 C   0  0  0  0  0  0  0  0  0  0  0  0
    2.1782   -0.4704    1.1087 C   0  0  0  0  0  0  0  0  0  0  0  0
    2.4064    0.1652   -1.2111 C   0  0  0  0  0  0  0  0  0  0  0  0
    4.2399    0.5140    0.3232 C   0  0  0  0  0  0  0  0  0  0  0  0
    3.4767   -0.0260    1.3582 C   0  0  0  0  0  0  0  0  0  0  0  0
    3.7049    0.6095   -0.9615 C   0  0  0  0  0  0  0  0  0  0  0  0
    5.6285    0.9888    0.5897 C   0  0  0  0  0  0  0  0  0  0  0  0
   -2.5173   -0.0279   -1.4213 H   0  0  0  0  0  0  0  0  0  0  0  0
   -2.5436   -0.5802    1.5969 H   0  0  0  0  0  0  0  0  0  0  0  0
   -2.5157   -1.7821    0.3063 H   0  0  0  0  0  0  0  0  0  0  0  0
   -2.5977    2.3598   -0.8871 H   0  0  0  0  0  0  0  0  0  0  0  0
   -2.6645    2.0289    0.8290 H   0  0  0  0  0  0  0  0  0  0  0  0
   -4.7561   -1.5848    1.2408 H   0  0  0  0  0  0  0  0  0  0  0  0
   -4.6883   -1.2499   -0.4880 H   0  0  0  0  0  0  0  0  0  0  0  0
   -4.7949    1.3129   -1.2494 H   0  0  0  0  0  0  0  0  0  0  0  0
   -4.9284    2.5280    0.0197 H   0  0  0  0  0  0  0  0  0  0  0  0
   -6.1259    0.4089    0.6012 H   0  0  0  0  0  0  0  0  0  0  0  0
   -4.8644    0.8077    1.7650 H   0  0  0  0  0  0  0  0  0  0  0  0
    1.5978   -0.8796    1.9299 H   0  0  0  0  0  0  0  0  0  0  0  0
    2.0061    0.2573   -2.2160 H   0  0  0  0  0  0  0  0  0  0  0  0
    3.8812   -0.1024    2.3640 H   0  0  0  0  0  0  0  0  0  0  0  0
    4.2886    1.0318   -1.7752 H   0  0  0  0  0  0  0  0  0  0  0  0
    5.6159    2.0455    0.8743 H   0  0  0  0  0  0  0  0  0  0  0  0
    6.0950    0.4133    1.3965 H   0  0  0  0  0  0  0  0  0  0  0  0
    6.2629    0.8710   -0.2955 H   0  0  0  0  0  0  0  0  0  0  0  0
  1  2  1  0  0  0  0
  1  3  2  0  0  0  0
  1  4  2  0  0  0  0
  1 11  1  0  0  0  0
  2  5  1  0  0  0  0
  5  6  1  0  0  0  0
  5  7  1  0  0  0  0
  5 18  1  0  0  0  0
  6  8  1  0  0  0  0
  6 19  1  0  0  0  0
  6 20  1  0  0  0  0
  7  9  1  0  0  0  0
  7 21  1  0  0  0  0
  7 22  1  0  0  0  0
  8 10  1  0  0  0  0
  8 23  1  0  0  0  0
  8 24  1  0  0  0  0
  9 10  1  0  0  0  0
  9 25  1  0  0  0  0
  9 26  1  0  0  0  0
 10 27  1  0  0  0  0
 10 28  1  0  0  0  0
 11 12  2  0  0  0  0
 11 13  1  0  0  0  0
 12 15  1  0  0  0  0
 12 29  1  0  0  0  0
 13 16  2  0  0  0  0
 13 30  1  0  0  0  0
 14 15  2  0  0  0  0
 14 16  1  0  0  0  0
 14 17  1  0  0  0  0
 15 31  1  0  0  0  0
 16 32  1  0  0  0  0
 17 33  1  0  0  0  0
 17 34  1  0  0  0  0
 17 35  1  0  0  0  0
M  END
> <PUBCHEM_COMPOUND_CID>
13722

> <PUBCHEM_CONFORMER_RMSD>
0.6

> <PUBCHEM_CONFORMER_DIVERSEORDER>
2
5
7
6
8
9
1
4
3

> <PUBCHEM_MMFF94_PARTIAL_CHARGES>
16
1 1.49
11 -0.01
12 -0.15
13 -0.15
14 -0.14
15 -0.15
16 -0.15
17 0.14
2 -0.46
29 0.15
3 -0.65
30 0.15
31 0.15
32 0.15
4 -0.65
5 0.28

> <PUBCHEM_EFFECTIVE_ROTOR_COUNT>
4.2

> <PUBCHEM_PHARMACOPHORE_FEATURES>
4
1 3 acceptor
1 4 acceptor
6 11 12 13 14 15 16 rings
6 5 6 7 8 9 10 rings

> <PUBCHEM_HEAVY_ATOM_COUNT>
17

> <PUBCHEM_ATOM_DEF_STEREO_COUNT>
0

> <PUBCHEM_ATOM_UDEF_STEREO_COUNT>
0

> <PUBCHEM_BOND_DEF_STEREO_COUNT>
0

> <PUBCHEM_BOND_UDEF_STEREO_COUNT>
0

> <PUBCHEM_ISOTOPIC_ATOM_COUNT>
0

> <PUBCHEM_COMPONENT_COUNT>
1

> <PUBCHEM_CACTVS_TAUTO_COUNT>
1

> <PUBCHEM_CONFORMER_ID>
0000359A00000002

> <PUBCHEM_MMFF94_ENERGY>
22.839

> <PUBCHEM_FEATURE_SELFOVERLAP>
20.314

> <PUBCHEM_SHAPE_FINGERPRINT>
10354089 29 17775565343082407168
10498660 4 17603875519757006057
11046707 91 9871750204090515172
11132069 177 18341889710394729237
11471102 20 15647049370141281990
11543360 7 5472849372562438039
11796584 16 9583527516136511328
12107183 9 17054448631412528721
12236239 1 17847062173167948488
12251169 10 17131833166092227426
12363563 72 12535342428420135415
12507557 5 18131915953327119565
12507560 40 18341896337355388430
12596602 18 17131830941225692281
12633257 1 16128655236941753496
12730499 353 17022614269379316286
12788726 201 17341227291570653298
12892183 10 17346603018508166433
12969540 114 17458352948160085709
13214271 11 18407479960143033253
13288520 33 9223237351175820264
13544653 18 13686299088441748318
14252887 29 14836126576324046280
14341114 176 18060418053451109152
14341114 328 17917988377866911217
14943859 89 18113618971680978286
15188451 53 15625930994730698113
1798214 20 7204772579417394972
1813 80 14836120009256266870
18186145 218 16225770717829342446
19050596 39 17489583454865581493
193927 3 11599720726725511425
19862831 5 4751155211625236679
200 152 15195573381305469415
20325693 3 6771866273466696761
20374829 77 9295289430396729153
20432913 95 14979958085814987241
204376 136 17676489449482791543
20645477 56 17894634716917994660
20645477 70 16081636855747315814
20671657 53 9871461045386144239
20871999 31 15792028739801854741
21065198 48 17775570861540265849
21119208 17 5689596095403506912
22854114 59 18113615690341560969
231179 274 17894914035757799714
23402539 116 18334301946144009180
23402655 69 14490464301032525602
23557571 272 17458909223649952551
23559900 14 18198328744572228127
25 1 16298384660798881862
26918003 58 15267341821049784897
2916195 48 18114469972280043192
314173 85 14261354690765473766
351380 180 18411982451009685561
4028521 119 17168145658670448785
4047638 21 17603583020010371836
42 15 15913326905300850493
465052 167 14117796921210478312
474 4 16081380617528859712
5104073 3 18200024187802922993
633830 44 18337112366315309615
9882013 296 17632577153976453291

> <PUBCHEM_SHAPE_MULTIPOLES>
336.09
11.43
1.44
1.24
0.07
0
0.26
4.41
-3.25
1.1
0.03
-0.82
-0.21
0.1

> <PUBCHEM_SHAPE_SELFOVERLAP>
683.628

> <PUBCHEM_SHAPE_VOLUME>
195.7

> <PUBCHEM_COORDINATE_TYPE>
2
5
10

$$$$

