7419
  -OEChem-06261202042D

 17 17  0     0  0  0  0  0  0999 V2000
    5.1350    1.7500    0.0000 O   0  0  0  0  0  0  0  0  0  0  0  0
    3.4030    1.7500    0.0000 O   0  0  0  0  0  0  0  0  0  0  0  0
    2.5369   -1.7500    0.0000 N   0  0  0  0  0  0  0  0  0  0  0  0
    4.2690    0.2500    0.0000 C   0  0  0  0  0  0  0  0  0  0  0  0
    3.4030   -1.2500    0.0000 C   0  0  0  0  0  0  0  0  0  0  0  0
    3.4030   -0.2500    0.0000 C   0  0  0  0  0  0  0  0  0  0  0  0
    5.1350   -0.2500    0.0000 C   0  0  0  0  0  0  0  0  0  0  0  0
    4.2690   -1.7500    0.0000 C   0  0  0  0  0  0  0  0  0  0  0  0
    5.1350   -1.2500    0.0000 C   0  0  0  0  0  0  0  0  0  0  0  0
    4.2690    1.2500    0.0000 C   0  0  0  0  0  0  0  0  0  0  0  0
    2.8660    0.0600    0.0000 H   0  0  0  0  0  0  0  0  0  0  0  0
    5.6720    0.0600    0.0000 H   0  0  0  0  0  0  0  0  0  0  0  0
    4.2690   -2.3700    0.0000 H   0  0  0  0  0  0  0  0  0  0  0  0
    5.6720   -1.5600    0.0000 H   0  0  0  0  0  0  0  0  0  0  0  0
    2.5369   -2.3700    0.0000 H   0  0  0  0  0  0  0  0  0  0  0  0
    2.0000   -1.4400    0.0000 H   0  0  0  0  0  0  0  0  0  0  0  0
    5.1350    2.3700    0.0000 H   0  0  0  0  0  0  0  0  0  0  0  0
  1 10  1  0  0  0  0
  1 17  1  0  0  0  0
  2 10  2  0  0  0  0
  3  5  1  0  0  0  0
  3 15  1  0  0  0  0
  3 16  1  0  0  0  0
  4  6  2  0  0  0  0
  4  7  1  0  0  0  0
  4 10  1  0  0  0  0
  5  6  1  0  0  0  0
  5  8  2  0  0  0  0
  6 11  1  0  0  0  0
  7  9  2  0  0  0  0
  7 12  1  0  0  0  0
  8  9  1  0  0  0  0
  8 13  1  0  0  0  0
  9 14  1  0  0  0  0
M  END
> <PUBCHEM_COMPOUND_CID>
7419

> <PUBCHEM_COMPOUND_CANONICALIZED>
1

> <PUBCHEM_CACTVS_COMPLEXITY>
136

> <PUBCHEM_CACTVS_HBOND_ACCEPTOR>
3

> <PUBCHEM_CACTVS_HBOND_DONOR>
2

> <PUBCHEM_CACTVS_ROTATABLE_BOND>
1

> <PUBCHEM_CACTVS_SUBSKEYS>
AAADcYBiMAAAAAAAAAAAAAAAAAAAAAAAAAAwAAAAAAAAAAABAAAAHgAQCAAADAiBmAAwyIBAAgCIAiTSSACCAAAkAgAIiAEAbMgIJjKAlZGAcQBk0AEI2Ye8yCCOAAAAQAAAAAAAAACAAAAAAAAAAAAAAA==

> <PUBCHEM_IUPAC_OPENEYE_NAME>
3-aminobenzoic acid

> <PUBCHEM_IUPAC_CAS_NAME>
3-aminobenzoic acid

> <PUBCHEM_IUPAC_NAME>
3-aminobenzoic acid

> <PUBCHEM_IUPAC_SYSTEMATIC_NAME>
3-azanylbenzoic acid

> <PUBCHEM_IUPAC_TRADITIONAL_NAME>
3-aminobenzoic acid

> <PUBCHEM_IUPAC_INCHI>
InChI=1S/C7H7NO2/c8-6-3-1-2-5(4-6)7(9)10/h1-4H,8H2,(H,9,10)

> <PUBCHEM_IUPAC_INCHIKEY>
XFDUHJPVQKIXHO-UHFFFAOYSA-N

> <PUBCHEM_XLOGP3>
0.1

> <PUBCHEM_EXACT_MASS>
137.047678

> <PUBCHEM_MOLECULAR_FORMULA>
C7H7NO2

> <PUBCHEM_MOLECULAR_WEIGHT>
137.13598

> <PUBCHEM_OPENEYE_CAN_SMILES>
C1=CC(=CC(=C1)N)C(=O)O

> <PUBCHEM_OPENEYE_ISO_SMILES>
C1=CC(=CC(=C1)N)C(=O)O

> <PUBCHEM_CACTVS_TPSA>
63.3

> <PUBCHEM_MONOISOTOPIC_WEIGHT>
137.047678

> <PUBCHEM_TOTAL_CHARGE>
0

> <PUBCHEM_HEAVY_ATOM_COUNT>
10

> <PUBCHEM_ATOM_DEF_STEREO_COUNT>
0

> <PUBCHEM_ATOM_UDEF_STEREO_COUNT>
0

> <PUBCHEM_BOND_DEF_STEREO_COUNT>
0

> <PUBCHEM_BOND_UDEF_STEREO_COUNT>
0

> <PUBCHEM_ISOTOPIC_ATOM_COUNT>
0

> <PUBCHEM_COMPONENT_COUNT>
1

> <PUBCHEM_CACTVS_TAUTO_COUNT>
1

> <PUBCHEM_COORDINATE_TYPE>
1
5
255

> <PUBCHEM_BONDANNOTATIONS>
4  6  8
4  7  8
5  6  8
5  8  8
7  9  8
8  9  8

$$$$

