6797
  -OEChem-06261201302D

 26 28  0     0  0  0  0  0  0999 V2000
    3.7702   -1.8020    0.0000 N   0  0  0  0  0  0  0  0  0  0  0  0
    4.6641   -0.2673    0.0000 C   0  0  0  0  0  0  0  0  0  0  0  0
    5.5301    0.2327    0.0000 C   0  0  0  0  0  0  0  0  0  0  0  0
    6.3961   -0.2673    0.0000 C   0  0  0  0  0  0  0  0  0  0  0  0
    4.6641   -1.2673    0.0000 C   0  0  0  0  0  0  0  0  0  0  0  0
    6.3961   -1.2673    0.0000 C   0  0  0  0  0  0  0  0  0  0  0  0
    5.5301   -1.7673    0.0000 C   0  0  0  0  0  0  0  0  0  0  0  0
    3.7702    0.2674    0.0000 C   0  0  0  0  0  0  0  0  0  0  0  0
    5.5141    1.2742    0.0000 C   0  0  0  0  0  0  0  0  0  0  0  0
    7.3062    0.2395    0.0000 C   0  0  0  0  0  0  0  0  0  0  0  0
    2.8641   -1.2881    0.0000 C   0  0  0  0  0  0  0  0  0  0  0  0
    2.8641   -0.2465    0.0000 C   0  0  0  0  0  0  0  0  0  0  0  0
    6.4121    1.8020    0.0000 C   0  0  0  0  0  0  0  0  0  0  0  0
    7.3142    1.2812    0.0000 C   0  0  0  0  0  0  0  0  0  0  0  0
    2.0000   -1.7914    0.0000 C   0  0  0  0  0  0  0  0  0  0  0  0
    6.9331   -1.5773    0.0000 H   0  0  0  0  0  0  0  0  0  0  0  0
    3.7773    0.8873    0.0000 H   0  0  0  0  0  0  0  0  0  0  0  0
    5.5301   -2.3873    0.0000 H   0  0  0  0  0  0  0  0  0  0  0  0
    4.9736    1.5780    0.0000 H   0  0  0  0  0  0  0  0  0  0  0  0
    7.8395   -0.0766    0.0000 H   0  0  0  0  0  0  0  0  0  0  0  0
    2.3284    0.0656    0.0000 H   0  0  0  0  0  0  0  0  0  0  0  0
    6.4097    2.4220    0.0000 H   0  0  0  0  0  0  0  0  0  0  0  0
    7.8523    1.5891    0.0000 H   0  0  0  0  0  0  0  0  0  0  0  0
    1.6879   -1.2557    0.0000 H   0  0  0  0  0  0  0  0  0  0  0  0
    1.4643   -2.1035    0.0000 H   0  0  0  0  0  0  0  0  0  0  0  0
    2.3121   -2.3272    0.0000 H   0  0  0  0  0  0  0  0  0  0  0  0
  1  5  1  0  0  0  0
  1 11  2  0  0  0  0
  2  3  1  0  0  0  0
  2  5  2  0  0  0  0
  2  8  1  0  0  0  0
  3  4  1  0  0  0  0
  3  9  2  0  0  0  0
  4  6  1  0  0  0  0
  4 10  2  0  0  0  0
  5  7  1  0  0  0  0
  6  7  2  0  0  0  0
  6 16  1  0  0  0  0
  7 18  1  0  0  0  0
  8 12  2  0  0  0  0
  8 17  1  0  0  0  0
  9 13  1  0  0  0  0
  9 19  1  0  0  0  0
 10 14  1  0  0  0  0
 10 20  1  0  0  0  0
 11 12  1  0  0  0  0
 11 15  1  0  0  0  0
 12 21  1  0  0  0  0
 13 14  2  0  0  0  0
 13 22  1  0  0  0  0
 14 23  1  0  0  0  0
 15 24  1  0  0  0  0
 15 25  1  0  0  0  0
 15 26  1  0  0  0  0
M  END
> <PUBCHEM_COMPOUND_CID>
6797

> <PUBCHEM_COMPOUND_CANONICALIZED>
1

> <PUBCHEM_CACTVS_COMPLEXITY>
225

> <PUBCHEM_CACTVS_HBOND_ACCEPTOR>
1

> <PUBCHEM_CACTVS_HBOND_DONOR>
0

> <PUBCHEM_CACTVS_ROTATABLE_BOND>
0

> <PUBCHEM_CACTVS_SUBSKEYS>
AAADccByAAAAAAAAAAAAAAAAAAAAAAAAAAA8YIAAAAAAAADx9AAAHAAAAAAADAiBHgAywPIIEACgAyRiRACCgCAhAiAImCAwZJgIIOLAkZGEIAhggADIyAcQgMAOiAACQAASAAAQAASAACQAAAAAAAAAAA==

> <PUBCHEM_IUPAC_OPENEYE_NAME>
3-methylbenzo[f]quinoline

> <PUBCHEM_IUPAC_CAS_NAME>
3-methylbenzo[f]quinoline

> <PUBCHEM_IUPAC_NAME>
3-methylbenzo[f]quinoline

> <PUBCHEM_IUPAC_SYSTEMATIC_NAME>
3-methylbenzo[f]quinoline

> <PUBCHEM_IUPAC_TRADITIONAL_NAME>
3-methylbenzo[f]quinoline

> <PUBCHEM_IUPAC_INCHI>
InChI=1S/C14H11N/c1-10-6-8-13-12-5-3-2-4-11(12)7-9-14(13)15-10/h2-9H,1H3

> <PUBCHEM_IUPAC_INCHIKEY>
SUHRSZJZYUCLOD-UHFFFAOYSA-N

> <PUBCHEM_XLOGP3>
3.8

> <PUBCHEM_EXACT_MASS>
193.089149

> <PUBCHEM_MOLECULAR_FORMULA>
C14H11N

> <PUBCHEM_MOLECULAR_WEIGHT>
193.24384

> <PUBCHEM_OPENEYE_CAN_SMILES>
CC1=NC2=C(C=C1)C3=CC=CC=C3C=C2

> <PUBCHEM_OPENEYE_ISO_SMILES>
CC1=NC2=C(C=C1)C3=CC=CC=C3C=C2

> <PUBCHEM_CACTVS_TPSA>
12.9

> <PUBCHEM_MONOISOTOPIC_WEIGHT>
193.089149

> <PUBCHEM_TOTAL_CHARGE>
0

> <PUBCHEM_HEAVY_ATOM_COUNT>
15

> <PUBCHEM_ATOM_DEF_STEREO_COUNT>
0

> <PUBCHEM_ATOM_UDEF_STEREO_COUNT>
0

> <PUBCHEM_BOND_DEF_STEREO_COUNT>
0

> <PUBCHEM_BOND_UDEF_STEREO_COUNT>
0

> <PUBCHEM_ISOTOPIC_ATOM_COUNT>
0

> <PUBCHEM_COMPONENT_COUNT>
1

> <PUBCHEM_CACTVS_TAUTO_COUNT>
1

> <PUBCHEM_COORDINATE_TYPE>
1
5
255

> <PUBCHEM_BONDANNOTATIONS>
1  11  8
1  5  8
10  14  8
11  12  8
13  14  8
2  3  8
2  5  8
2  8  8
3  4  8
3  9  8
4  10  8
4  6  8
5  7  8
6  7  8
8  12  8
9  13  8

$$$$

