3547
  -OEChem-06251223293D

 37 39  0     1  0  0  0  0  0999 V2000
    0.4598    1.1937    0.3026 S   0  0  0  0  0  0  0  0  0  0  0  0
    0.1933    1.9256   -0.9183 O   0  0  0  0  0  0  0  0  0  0  0  0
    0.3444    1.8109    1.6072 O   0  0  0  0  0  0  0  0  0  0  0  0
    2.0014    0.4470    0.1666 N   0  0  1  0  0  0  0  0  0  0  0  0
    5.0694    0.0538   -0.3765 N   0  0  0  0  0  0  0  0  0  0  0  0
   -4.8191    0.5385   -0.5735 N   0  0  0  0  0  0  0  0  0  0  0  0
    2.1962   -0.3886   -1.0558 C   0  0  0  0  0  0  0  0  0  0  0  0
    3.1560    1.3309    0.4956 C   0  0  0  0  0  0  0  0  0  0  0  0
    3.1132   -1.5612   -0.7276 C   0  0  0  0  0  0  0  0  0  0  0  0
    4.4149    0.5347    0.8334 C   0  0  0  0  0  0  0  0  0  0  0  0
    4.6074   -1.2478   -0.8492 C   0  0  0  0  0  0  0  0  0  0  0  0
   -0.7672   -0.1083    0.3323 C   0  0  0  0  0  0  0  0  0  0  0  0
   -2.0974    0.1408    0.0277 C   0  0  0  0  0  0  0  0  0  0  0  0
   -0.2980   -1.3615    0.6770 C   0  0  0  0  0  0  0  0  0  0  0  0
   -3.0011   -0.9407    0.0754 C   0  0  0  0  0  0  0  0  0  0  0  0
   -1.1938   -2.4272    0.7230 C   0  0  0  0  0  0  0  0  0  0  0  0
   -2.5763    1.4087   -0.3220 C   0  0  0  0  0  0  0  0  0  0  0  0
   -2.5403   -2.2211    0.4240 C   0  0  0  0  0  0  0  0  0  0  0  0
   -4.3373   -0.6781   -0.2333 C   0  0  0  0  0  0  0  0  0  0  0  0
   -3.9254    1.5499   -0.6088 C   0  0  0  0  0  0  0  0  0  0  0  0
    2.5992    0.2219   -1.8724 H   0  0  0  0  0  0  0  0  0  0  0  0
    1.2431   -0.7869   -1.4138 H   0  0  0  0  0  0  0  0  0  0  0  0
    2.9041    1.9262    1.3809 H   0  0  0  0  0  0  0  0  0  0  0  0
    3.3351    2.0332   -0.3276 H   0  0  0  0  0  0  0  0  0  0  0  0
    2.8926   -2.3847   -1.4184 H   0  0  0  0  0  0  0  0  0  0  0  0
    2.9037   -1.9413    0.2796 H   0  0  0  0  0  0  0  0  0  0  0  0
    5.1124    1.2246    1.3242 H   0  0  0  0  0  0  0  0  0  0  0  0
    4.2219   -0.2706    1.5518 H   0  0  0  0  0  0  0  0  0  0  0  0
    5.1632   -2.0361   -0.3260 H   0  0  0  0  0  0  0  0  0  0  0  0
    4.8942   -1.3267   -1.9046 H   0  0  0  0  0  0  0  0  0  0  0  0
    6.0773    0.0065   -0.2287 H   0  0  0  0  0  0  0  0  0  0  0  0
    0.7251   -1.5545    0.9720 H   0  0  0  0  0  0  0  0  0  0  0  0
   -0.8465   -3.4171    1.0045 H   0  0  0  0  0  0  0  0  0  0  0  0
   -1.9799    2.3104   -0.3355 H   0  0  0  0  0  0  0  0  0  0  0  0
   -3.2267   -3.0637    0.4676 H   0  0  0  0  0  0  0  0  0  0  0  0
   -5.0850   -1.4663   -0.2155 H   0  0  0  0  0  0  0  0  0  0  0  0
   -4.3376    2.5189   -0.8714 H   0  0  0  0  0  0  0  0  0  0  0  0
  1  2  2  0  0  0  0
  1  3  2  0  0  0  0
  1  4  1  0  0  0  0
  1 12  1  0  0  0  0
  4  7  1  0  0  0  0
  4  8  1  0  0  0  0
  5 10  1  0  0  0  0
  5 11  1  0  0  0  0
  5 31  1  0  0  0  0
  6 19  2  0  0  0  0
  6 20  1  0  0  0  0
  7  9  1  0  0  0  0
  7 21  1  0  0  0  0
  7 22  1  0  0  0  0
  8 10  1  0  0  0  0
  8 23  1  0  0  0  0
  8 24  1  0  0  0  0
  9 11  1  0  0  0  0
  9 25  1  0  0  0  0
  9 26  1  0  0  0  0
 10 27  1  0  0  0  0
 10 28  1  0  0  0  0
 11 29  1  0  0  0  0
 11 30  1  0  0  0  0
 12 13  1  0  0  0  0
 12 14  2  0  0  0  0
 13 15  2  0  0  0  0
 13 17  1  0  0  0  0
 14 16  1  0  0  0  0
 14 32  1  0  0  0  0
 15 18  1  0  0  0  0
 15 19  1  0  0  0  0
 16 18  2  0  0  0  0
 16 33  1  0  0  0  0
 17 20  2  0  0  0  0
 17 34  1  0  0  0  0
 18 35  1  0  0  0  0
 19 36  1  0  0  0  0
 20 37  1  0  0  0  0
M  END
> <PUBCHEM_COMPOUND_CID>
3547

> <PUBCHEM_CONFORMER_RMSD>
0.6

> <PUBCHEM_CONFORMER_DIVERSEORDER>
1
22
67
23
58
36
54
53
24
52
11
57
38
59
8
15
41
65
63
17
61
66
33
19
31
5
45
56
25
42
64
21
60
2
37
29
3
46
47
62
10
68
6
18
7
39
50
51
26
20
35
13
9
4
49
40
48
55
28
34
30
27
43
14
32
12
44
16

> <PUBCHEM_MMFF94_PARTIAL_CHARGES>
24
1 1.45
10 0.27
11 0.27
12 -0.01
14 -0.15
16 -0.15
17 -0.15
18 -0.15
19 0.16
2 -0.65
20 0.16
3 -0.65
31 0.36
32 0.15
33 0.15
34 0.15
35 0.15
36 0.15
37 0.15
4 -0.85
5 -0.9
6 -0.62
7 0.36
8 0.36

> <PUBCHEM_EFFECTIVE_ROTOR_COUNT>
3.4

> <PUBCHEM_PHARMACOPHORE_FEATURES>
8
1 2 acceptor
1 3 acceptor
1 5 cation
1 5 donor
1 6 acceptor
6 12 13 14 15 16 18 rings
6 6 13 15 17 19 20 rings
7 4 5 7 8 9 10 11 rings

> <PUBCHEM_HEAVY_ATOM_COUNT>
20

> <PUBCHEM_ATOM_DEF_STEREO_COUNT>
0

> <PUBCHEM_ATOM_UDEF_STEREO_COUNT>
0

> <PUBCHEM_BOND_DEF_STEREO_COUNT>
0

> <PUBCHEM_BOND_UDEF_STEREO_COUNT>
0

> <PUBCHEM_ISOTOPIC_ATOM_COUNT>
0

> <PUBCHEM_COMPONENT_COUNT>
1

> <PUBCHEM_CACTVS_TAUTO_COUNT>
1

> <PUBCHEM_CONFORMER_ID>
00000DDB00000001

> <PUBCHEM_MMFF94_ENERGY>
51.9364

> <PUBCHEM_FEATURE_SELFOVERLAP>
40.638

> <PUBCHEM_SHAPE_FINGERPRINT>
10366900 7 17822005433042647096
11112241 14 16952556597140644696
11370993 70 18411140238125108022
11458722 379 18342174505233622367
12236239 1 16702305654735826160
12788726 201 18043250334893471024
13134695 92 17095810935973258417
13140716 1 18055064364333020243
13544592 145 18410009974625963982
13544653 18 18113049433215920436
14115302 16 18272925008105841580
14251757 17 18337391650858413034
14386348 63 18334010580037087102
14573314 32 18409168822318681716
14790565 3 17760924439489328553
14866123 147 17467620937981871338
15042514 8 18128250078982182739
15099037 51 18343021090600681245
15163728 17 16342039774074907991
15196674 1 18411419522531126678
15375358 24 18335140877884952258
15635459 17 18186792604634324414
16945 1 18272363136394998195
17804303 29 18340769243489757625
17834072 14 18335137583713549558
17870717 6 18337094739985752710
18186145 218 18411701031962469217
19141452 34 18260825956658641439
200 152 17095522906907510746
20279233 1 18335134280683271366
20645476 183 17132110230311800171
20645477 56 18342738503185379173
20645477 70 17748823034061537606
20871999 31 18201430363979091398
21029758 11 18260267455821665097
21279426 13 18192995035055787821
21285901 2 18341332300595744428
21521239 73 18114763576639991559
2215653 11 18333452062247121182
23175994 123 17967529056310807041
23402539 116 18411991247070851604
23526113 38 18187089446449762081
23557571 272 18412261701388327368
23558518 356 17825932982708238704
23559900 14 18335703806675091992
26918003 58 18334016099196474704
2838139 119 15768958838900476591
2871803 45 18336260232673203006
3004659 81 18201437034760043346
4921388 177 17131259173783410259
495365 180 17677065563763961888
5283173 99 18337111275620690148
69090 78 18333454226858228399
9709674 26 18337953368172271982

> <PUBCHEM_SHAPE_MULTIPOLES>
388.76
9.52
2.27
1.03
4.14
0.51
-0.08
0.17
1.96
-0.83
-0.25
0.45
-0.11
1.28

> <PUBCHEM_SHAPE_SELFOVERLAP>
819.442

> <PUBCHEM_SHAPE_VOLUME>
216.8

> <PUBCHEM_COORDINATE_TYPE>
2
5
10

$$$$

