10939
  -OEChem-06261205082D

 27 26  0     1  0  0  0  0  0999 V2000
    2.2140    0.0000    0.0000 I   0  5  0  0  0  0  0  0  0  0  0  0
    1.3754    4.7840    0.0000 O   0  0  0  0  0  0  0  0  0  0  0  0
    0.8754    6.3228    0.0000 O   0  0  0  0  0  0  0  0  0  0  0  0
    3.3434    4.0846    0.0000 N   0  3  0  0  0  0  0  0  0  0  0  0
    3.1355    5.0628    0.0000 C   0  0  0  0  0  0  0  0  0  0  0  0
    2.1844    5.3718    0.0000 C   0  0  3  0  0  0  0  0  0  0  0  0
    1.8754    6.3228    0.0000 C   0  0  0  0  0  0  0  0  0  0  0  0
    3.5513    3.1064    0.0000 C   0  0  0  0  0  0  0  0  0  0  0  0
    4.3216    4.2925    0.0000 C   0  0  0  0  0  0  0  0  0  0  0  0
    2.3652    3.8767    0.0000 C   0  0  0  0  0  0  0  0  0  0  0  0
    0.5664    5.3718    0.0000 C   0  0  0  0  0  0  0  0  0  0  0  0
    3.7551    5.0844    0.0000 H   0  0  0  0  0  0  0  0  0  0  0  0
    3.2218    5.6767    0.0000 H   0  0  0  0  0  0  0  0  0  0  0  0
    2.3174    4.5322    0.0000 H   0  0  0  0  0  0  0  0  0  0  0  0
    2.4819    6.4517    0.0000 H   0  0  0  0  0  0  0  0  0  0  0  0
    1.8106    6.9394    0.0000 H   0  0  0  0  0  0  0  0  0  0  0  0
    2.2364    4.4831    0.0000 H   0  0  0  0  0  0  0  0  0  0  0  0
    1.7588    3.7478    0.0000 H   0  0  0  0  0  0  0  0  0  0  0  0
    2.4942    3.2702    0.0000 H   0  0  0  0  0  0  0  0  0  0  0  0
    2.9449    2.9776    0.0000 H   0  0  0  0  0  0  0  0  0  0  0  0
    3.6802    2.5000    0.0000 H   0  0  0  0  0  0  0  0  0  0  0  0
    4.1578    3.2354    0.0000 H   0  0  0  0  0  0  0  0  0  0  0  0
    4.4504    3.6861    0.0000 H   0  0  0  0  0  0  0  0  0  0  0  0
    4.9280    4.4214    0.0000 H   0  0  0  0  0  0  0  0  0  0  0  0
    4.1926    4.8990    0.0000 H   0  0  0  0  0  0  0  0  0  0  0  0
    0.0000    5.6239    0.0000 H   0  0  0  0  0  0  0  0  0  0  0  0
    0.2564    4.8348    0.0000 H   0  0  0  0  0  0  0  0  0  0  0  0
  2  6  1  0  0  0  0
  2 11  1  0  0  0  0
  3  7  1  0  0  0  0
  3 11  1  0  0  0  0
  4  5  1  0  0  0  0
  4  8  1  0  0  0  0
  4  9  1  0  0  0  0
  4 10  1  0  0  0  0
  5  6  1  0  0  0  0
  5 12  1  0  0  0  0
  5 13  1  0  0  0  0
  6  7  1  0  0  0  0
  6 14  1  0  0  0  0
  7 15  1  0  0  0  0
  7 16  1  0  0  0  0
  8 20  1  0  0  0  0
  8 21  1  0  0  0  0
  8 22  1  0  0  0  0
  9 23  1  0  0  0  0
  9 24  1  0  0  0  0
  9 25  1  0  0  0  0
 10 17  1  0  0  0  0
 10 18  1  0  0  0  0
 10 19  1  0  0  0  0
 11 26  1  0  0  0  0
 11 27  1  0  0  0  0
M  CHG  2   1  -1   4   1
M  END
> <PUBCHEM_COMPOUND_CID>
10939

> <PUBCHEM_COMPOUND_CANONICALIZED>
1

> <PUBCHEM_CACTVS_COMPLEXITY>
109

> <PUBCHEM_CACTVS_HBOND_ACCEPTOR>
3

> <PUBCHEM_CACTVS_HBOND_DONOR>
0

> <PUBCHEM_CACTVS_ROTATABLE_BOND>
2

> <PUBCHEM_CACTVS_SUBSKEYS>
AAADceBiMAAAAgAAAAAAAAAAAAAAASAAAAAAAAAAAAAAAAAAAAAAHgAAAAAACBThgAcCCAMABAAAAAAAAAAAAAAAAAAAAAAIAAATAAAAAAAlAAACAAAWAAAAAAAAAAAAAAAAAAAAAAAAAAAAAAAAAAAAAA==

> <PUBCHEM_IUPAC_OPENEYE_NAME>
1,3-dioxolan-4-ylmethyl(trimethyl)ammonium iodide

> <PUBCHEM_IUPAC_CAS_NAME>
1,3-dioxolan-4-ylmethyl(trimethyl)ammonium iodide

> <PUBCHEM_IUPAC_NAME>
1,3-dioxolan-4-ylmethyl(trimethyl)azanium iodide

> <PUBCHEM_IUPAC_SYSTEMATIC_NAME>
1,3-dioxolan-4-ylmethyl(trimethyl)azanium iodide

> <PUBCHEM_IUPAC_TRADITIONAL_NAME>
1,3-dioxolan-4-ylmethyl(trimethyl)ammonium iodide

> <PUBCHEM_IUPAC_INCHI>
InChI=1S/C7H16NO2.HI/c1-8(2,3)4-7-5-9-6-10-7;/h7H,4-6H2,1-3H3;1H/q+1;/p-1

> <PUBCHEM_IUPAC_INCHIKEY>
HQWAEQCLIWVOMF-UHFFFAOYSA-M

> <PUBCHEM_EXACT_MASS>
273.022577

> <PUBCHEM_MOLECULAR_FORMULA>
C7H16INO2

> <PUBCHEM_MOLECULAR_WEIGHT>
273.11191

> <PUBCHEM_OPENEYE_CAN_SMILES>
C[N+](C)(C)CC1COCO1.[I-]

> <PUBCHEM_OPENEYE_ISO_SMILES>
C[N+](C)(C)CC1COCO1.[I-]

> <PUBCHEM_CACTVS_TPSA>
18.5

> <PUBCHEM_MONOISOTOPIC_WEIGHT>
273.022577

> <PUBCHEM_TOTAL_CHARGE>
0

> <PUBCHEM_HEAVY_ATOM_COUNT>
11

> <PUBCHEM_ATOM_DEF_STEREO_COUNT>
0

> <PUBCHEM_ATOM_UDEF_STEREO_COUNT>
1

> <PUBCHEM_BOND_DEF_STEREO_COUNT>
0

> <PUBCHEM_BOND_UDEF_STEREO_COUNT>
0

> <PUBCHEM_ISOTOPIC_ATOM_COUNT>
0

> <PUBCHEM_COMPONENT_COUNT>
2

> <PUBCHEM_CACTVS_TAUTO_COUNT>
1

> <PUBCHEM_COORDINATE_TYPE>
1
5
255

> <PUBCHEM_BONDANNOTATIONS>
6  14  3

$$$$

