17395630
  -OEChem-06241222512D

 40 42  0     0  0  0  0  0  0999 V2000
    8.9282    1.2306    0.0000 S   0  0  0  0  0  0  0  0  0  0  0  0
    5.4641   -1.7694    0.0000 O   0  0  0  0  0  0  0  0  0  0  0  0
    8.9282   -0.7694    0.0000 O   0  0  0  0  0  0  0  0  0  0  0  0
    7.1962   -0.7694    0.0000 N   0  0  0  0  0  0  0  0  0  0  0  0
    8.1192    2.8184    0.0000 N   0  0  0  0  0  0  0  0  0  0  0  0
    9.7372    2.8184    0.0000 N   0  0  0  0  0  0  0  0  0  0  0  0
    8.4282    3.7694    0.0000 N   0  0  0  0  0  0  0  0  0  0  0  0
    7.1962   -1.7694    0.0000 C   0  0  0  0  0  0  0  0  0  0  0  0
    6.3301   -2.2694    0.0000 C   0  0  0  0  0  0  0  0  0  0  0  0
    4.5981   -2.2694    0.0000 C   0  0  0  0  0  0  0  0  0  0  0  0
    8.0622   -2.2694    0.0000 C   0  0  0  0  0  0  0  0  0  0  0  0
    6.3301   -3.2694    0.0000 C   0  0  0  0  0  0  0  0  0  0  0  0
    2.8660   -3.2694    0.0000 C   0  0  0  0  0  0  0  0  0  0  0  0
    3.7320   -1.7694    0.0000 C   0  0  0  0  0  0  0  0  0  0  0  0
    4.5981   -3.2694    0.0000 C   0  0  0  0  0  0  0  0  0  0  0  0
    2.8660   -2.2694    0.0000 C   0  0  0  0  0  0  0  0  0  0  0  0
    3.7320   -3.7694    0.0000 C   0  0  0  0  0  0  0  0  0  0  0  0
    8.0622   -3.2694    0.0000 C   0  0  0  0  0  0  0  0  0  0  0  0
    7.1962   -3.7694    0.0000 C   0  0  0  0  0  0  0  0  0  0  0  0
    8.0622   -0.2694    0.0000 C   0  0  0  0  0  0  0  0  0  0  0  0
    8.0622    0.7306    0.0000 C   0  0  0  0  0  0  0  0  0  0  0  0
    2.0000   -3.7694    0.0000 C   0  0  0  0  0  0  0  0  0  0  0  0
    8.9282    2.2306    0.0000 C   0  0  0  0  0  0  0  0  0  0  0  0
    9.4282    3.7694    0.0000 C   0  0  0  0  0  0  0  0  0  0  0  0
    8.5991   -1.9594    0.0000 H   0  0  0  0  0  0  0  0  0  0  0  0
    6.6592   -0.4594    0.0000 H   0  0  0  0  0  0  0  0  0  0  0  0
    5.7932   -3.5794    0.0000 H   0  0  0  0  0  0  0  0  0  0  0  0
    3.7320   -1.1494    0.0000 H   0  0  0  0  0  0  0  0  0  0  0  0
    5.1350   -3.5794    0.0000 H   0  0  0  0  0  0  0  0  0  0  0  0
    2.3291   -1.9594    0.0000 H   0  0  0  0  0  0  0  0  0  0  0  0
    3.7320   -4.3894    0.0000 H   0  0  0  0  0  0  0  0  0  0  0  0
    8.5991   -3.5794    0.0000 H   0  0  0  0  0  0  0  0  0  0  0  0
    7.1962   -4.3894    0.0000 H   0  0  0  0  0  0  0  0  0  0  0  0
    7.8501    1.3132    0.0000 H   0  0  0  0  0  0  0  0  0  0  0  0
    7.4516    0.6229    0.0000 H   0  0  0  0  0  0  0  0  0  0  0  0
    1.6900   -3.2325    0.0000 H   0  0  0  0  0  0  0  0  0  0  0  0
    1.4631   -4.0794    0.0000 H   0  0  0  0  0  0  0  0  0  0  0  0
    2.3100   -4.3064    0.0000 H   0  0  0  0  0  0  0  0  0  0  0  0
    7.5295    2.6268    0.0000 H   0  0  0  0  0  0  0  0  0  0  0  0
    9.7926    4.2710    0.0000 H   0  0  0  0  0  0  0  0  0  0  0  0
  1 21  1  0  0  0  0
  1 23  1  0  0  0  0
  2  9  1  0  0  0  0
  2 10  1  0  0  0  0
  3 20  2  0  0  0  0
  4  8  1  0  0  0  0
  4 20  1  0  0  0  0
  4 26  1  0  0  0  0
  5  7  1  0  0  0  0
  5 23  1  0  0  0  0
  5 39  1  0  0  0  0
  6 23  2  0  0  0  0
  6 24  1  0  0  0  0
  7 24  2  0  0  0  0
  8  9  1  0  0  0  0
  8 11  2  0  0  0  0
  9 12  2  0  0  0  0
 10 14  2  0  0  0  0
 10 15  1  0  0  0  0
 11 18  1  0  0  0  0
 11 25  1  0  0  0  0
 12 19  1  0  0  0  0
 12 27  1  0  0  0  0
 13 16  2  0  0  0  0
 13 17  1  0  0  0  0
 13 22  1  0  0  0  0
 14 16  1  0  0  0  0
 14 28  1  0  0  0  0
 15 17  2  0  0  0  0
 15 29  1  0  0  0  0
 16 30  1  0  0  0  0
 17 31  1  0  0  0  0
 18 19  2  0  0  0  0
 18 32  1  0  0  0  0
 19 33  1  0  0  0  0
 20 21  1  0  0  0  0
 21 34  1  0  0  0  0
 21 35  1  0  0  0  0
 22 36  1  0  0  0  0
 22 37  1  0  0  0  0
 22 38  1  0  0  0  0
 24 40  1  0  0  0  0
M  END
> <PUBCHEM_COMPOUND_CID>
17395630

> <PUBCHEM_COMPOUND_CANONICALIZED>
1

> <PUBCHEM_CACTVS_COMPLEXITY>
404

> <PUBCHEM_CACTVS_HBOND_ACCEPTOR>
5

> <PUBCHEM_CACTVS_HBOND_DONOR>
2

> <PUBCHEM_CACTVS_ROTATABLE_BOND>
6

> <PUBCHEM_CACTVS_SUBSKEYS>
AAADceB7sABAAAAAAAAAAAAAAAAAAWAAAAAwYAAAAAAAAAAB0AAAHgQYAAAADAyF2AS31obrFAiqAiVTdACSWgvxopAN6AAPbIiOLiLEsZuHOCjk1BHY6AeQwAAOIAAAAAAAEABAAAAAAAAgAAAAAAAAAA==

> <PUBCHEM_IUPAC_OPENEYE_NAME>
N-[2-(4-methylphenoxy)phenyl]-2-(1H-1,2,4-triazol-5-ylsulfanyl)acetamide

> <PUBCHEM_IUPAC_CAS_NAME>
N-[2-(4-methylphenoxy)phenyl]-2-(1H-1,2,4-triazol-5-ylthio)acetamide

> <PUBCHEM_IUPAC_NAME>
N-[2-(4-methylphenoxy)phenyl]-2-(1H-1,2,4-triazol-5-ylsulfanyl)acetamide

> <PUBCHEM_IUPAC_SYSTEMATIC_NAME>
N-[2-(4-methylphenoxy)phenyl]-2-(1H-1,2,4-triazol-5-ylsulfanyl)ethanamide

> <PUBCHEM_IUPAC_TRADITIONAL_NAME>
N-[2-(4-methylphenoxy)phenyl]-2-(1H-1,2,4-triazol-5-ylthio)acetamide

> <PUBCHEM_IUPAC_INCHI>
InChI=1S/C17H16N4O2S/c1-12-6-8-13(9-7-12)23-15-5-3-2-4-14(15)20-16(22)10-24-17-18-11-19-21-17/h2-9,11H,10H2,1H3,(H,20,22)(H,18,19,21)

> <PUBCHEM_IUPAC_INCHIKEY>
QWUXAJLUFUZTBD-UHFFFAOYSA-N

> <PUBCHEM_XLOGP3_AA>
3.6

> <PUBCHEM_EXACT_MASS>
340.099397

> <PUBCHEM_MOLECULAR_FORMULA>
C17H16N4O2S

> <PUBCHEM_MOLECULAR_WEIGHT>
340.39954

> <PUBCHEM_OPENEYE_CAN_SMILES>
CC1=CC=C(C=C1)OC2=CC=CC=C2NC(=O)CSC3=NC=NN3

> <PUBCHEM_OPENEYE_ISO_SMILES>
CC1=CC=C(C=C1)OC2=CC=CC=C2NC(=O)CSC3=NC=NN3

> <PUBCHEM_CACTVS_TPSA>
105

> <PUBCHEM_MONOISOTOPIC_WEIGHT>
340.099397

> <PUBCHEM_TOTAL_CHARGE>
0

> <PUBCHEM_HEAVY_ATOM_COUNT>
24

> <PUBCHEM_ATOM_DEF_STEREO_COUNT>
0

> <PUBCHEM_ATOM_UDEF_STEREO_COUNT>
0

> <PUBCHEM_BOND_DEF_STEREO_COUNT>
0

> <PUBCHEM_BOND_UDEF_STEREO_COUNT>
0

> <PUBCHEM_ISOTOPIC_ATOM_COUNT>
0

> <PUBCHEM_COMPONENT_COUNT>
1

> <PUBCHEM_CACTVS_TAUTO_COUNT>
9

> <PUBCHEM_COORDINATE_TYPE>
1
5
255

> <PUBCHEM_BONDANNOTATIONS>
10  14  8
10  15  8
11  18  8
12  19  8
13  16  8
13  17  8
14  16  8
15  17  8
18  19  8
5  23  8
5  7  8
6  23  8
6  24  8
7  24  8
8  11  8
8  9  8
9  12  8

$$$$

