10957
  -OEChem-06261205103D

 17 16  0     0  0  0  0  0  0999 V2000
    0.8821   -0.5999   -0.3798 O   0  0  0  0  0  0  0  0  0  0  0  0
    2.6803    0.6476    0.3759 O   0  0  0  0  0  0  0  0  0  0  0  0
   -1.4574    0.0086   -0.3163 C   0  0  0  0  0  0  0  0  0  0  0  0
   -0.0214    0.4242    0.0149 C   0  0  0  0  0  0  0  0  0  0  0  0
   -1.8534   -1.2690    0.4268 C   0  0  0  0  0  0  0  0  0  0  0  0
   -2.4292    1.1388    0.0163 C   0  0  0  0  0  0  0  0  0  0  0  0
    2.1991   -0.3503   -0.1377 C   0  0  0  0  0  0  0  0  0  0  0  0
   -1.5197   -0.2048   -1.3910 H   0  0  0  0  0  0  0  0  0  0  0  0
    0.2286    1.3471   -0.5227 H   0  0  0  0  0  0  0  0  0  0  0  0
    0.0817    0.6067    1.0919 H   0  0  0  0  0  0  0  0  0  0  0  0
   -2.8827   -1.5547    0.1848 H   0  0  0  0  0  0  0  0  0  0  0  0
   -1.7863   -1.1338    1.5116 H   0  0  0  0  0  0  0  0  0  0  0  0
   -1.2049   -2.1062    0.1487 H   0  0  0  0  0  0  0  0  0  0  0  0
   -3.4550    0.8601   -0.2472 H   0  0  0  0  0  0  0  0  0  0  0  0
   -2.1763    2.0461   -0.5424 H   0  0  0  0  0  0  0  0  0  0  0  0
   -2.4078    1.3810    1.0842 H   0  0  0  0  0  0  0  0  0  0  0  0
    2.7878   -1.2127   -0.4861 H   0  0  0  0  0  0  0  0  0  0  0  0
  1  4  1  0  0  0  0
  1  7  1  0  0  0  0
  2  7  2  0  0  0  0
  3  4  1  0  0  0  0
  3  5  1  0  0  0  0
  3  6  1  0  0  0  0
  3  8  1  0  0  0  0
  4  9  1  0  0  0  0
  4 10  1  0  0  0  0
  5 11  1  0  0  0  0
  5 12  1  0  0  0  0
  5 13  1  0  0  0  0
  6 14  1  0  0  0  0
  6 15  1  0  0  0  0
  6 16  1  0  0  0  0
  7 17  1  0  0  0  0
M  END
> <PUBCHEM_COMPOUND_CID>
10957

> <PUBCHEM_CONFORMER_RMSD>
0.4

> <PUBCHEM_CONFORMER_DIVERSEORDER>
1
5
4
6
3
2

> <PUBCHEM_MMFF94_PARTIAL_CHARGES>
5
1 -0.43
17 0.06
2 -0.57
4 0.28
7 0.66

> <PUBCHEM_EFFECTIVE_ROTOR_COUNT>
3

> <PUBCHEM_PHARMACOPHORE_FEATURES>
2
1 2 acceptor
3 3 5 6 hydrophobe

> <PUBCHEM_HEAVY_ATOM_COUNT>
7

> <PUBCHEM_ATOM_DEF_STEREO_COUNT>
0

> <PUBCHEM_ATOM_UDEF_STEREO_COUNT>
0

> <PUBCHEM_BOND_DEF_STEREO_COUNT>
0

> <PUBCHEM_BOND_UDEF_STEREO_COUNT>
0

> <PUBCHEM_ISOTOPIC_ATOM_COUNT>
0

> <PUBCHEM_COMPONENT_COUNT>
1

> <PUBCHEM_CACTVS_TAUTO_COUNT>
1

> <PUBCHEM_CONFORMER_ID>
00002ACD00000001

> <PUBCHEM_MMFF94_ENERGY>
6.9981

> <PUBCHEM_FEATURE_SELFOVERLAP>
10.148

> <PUBCHEM_SHAPE_FINGERPRINT>
10857977 72 18338805489731037554
12932741 1 18187355554181122022
12932764 1 17060625511938600516
14390081 3 18187369843389849928
16714656 1 18201718500539807325
21040471 1 18198899391280551591
23552449 1 18411418380212224749
29004967 10 18186795868376510706
5084963 1 9943519721776377637
5460574 1 9799691506219592429

> <PUBCHEM_SHAPE_MULTIPOLES>
132.32
3.99
1.17
0.67
1.58
0.13
0
-0.6
-0.32
-0.71
-0.11
-0.03
0.02
0.24

> <PUBCHEM_SHAPE_SELFOVERLAP>
235.731

> <PUBCHEM_SHAPE_VOLUME>
86.4

> <PUBCHEM_COORDINATE_TYPE>
2
5
10

$$$$

