582864
  -OEChem-06241222442D

 41 41  0     1  0  0  0  0  0999 V2000
    3.8660    2.3170    0.0000 Si  0  0  0  0  0  0  0  0  0  0  0  0
    3.0000    1.8170    0.0000 O   0  0  0  0  0  0  0  0  0  0  0  0
    3.0000   -0.1830    0.0000 C   0  0  3  0  0  0  0  0  0  0  0  0
    3.0000    0.8170    0.0000 C   0  0  0  0  0  0  0  0  0  0  0  0
    2.1340   -0.6830    0.0000 C   0  0  0  0  0  0  0  0  0  0  0  0
    3.8660   -0.6830    0.0000 C   0  0  0  0  0  0  0  0  0  0  0  0
    2.1340   -1.6830    0.0000 C   0  0  0  0  0  0  0  0  0  0  0  0
    4.0000    0.8170    0.0000 C   0  0  0  0  0  0  0  0  0  0  0  0
    2.0000    0.8170    0.0000 C   0  0  0  0  0  0  0  0  0  0  0  0
    3.0000   -2.1830    0.0000 C   0  0  0  0  0  0  0  0  0  0  0  0
    3.8660   -1.6830    0.0000 C   0  0  0  0  0  0  0  0  0  0  0  0
    4.7320    2.8170    0.0000 C   0  0  0  0  0  0  0  0  0  0  0  0
    3.3660    3.1830    0.0000 C   0  0  0  0  0  0  0  0  0  0  0  0
    4.3660    1.4510    0.0000 C   0  0  0  0  0  0  0  0  0  0  0  0
    3.0000   -3.1830    0.0000 C   0  0  0  0  0  0  0  0  0  0  0  0
    3.5369    0.1270    0.0000 H   0  0  0  0  0  0  0  0  0  0  0  0
    1.9219   -0.1004    0.0000 H   0  0  0  0  0  0  0  0  0  0  0  0
    1.5234   -0.7907    0.0000 H   0  0  0  0  0  0  0  0  0  0  0  0
    4.4766   -0.7907    0.0000 H   0  0  0  0  0  0  0  0  0  0  0  0
    4.0781   -0.1004    0.0000 H   0  0  0  0  0  0  0  0  0  0  0  0
    1.5234   -1.5754    0.0000 H   0  0  0  0  0  0  0  0  0  0  0  0
    1.9219   -2.2656    0.0000 H   0  0  0  0  0  0  0  0  0  0  0  0
    4.0000    0.1970    0.0000 H   0  0  0  0  0  0  0  0  0  0  0  0
    4.6200    0.8170    0.0000 H   0  0  0  0  0  0  0  0  0  0  0  0
    4.0000    1.4370    0.0000 H   0  0  0  0  0  0  0  0  0  0  0  0
    2.0000    1.4370    0.0000 H   0  0  0  0  0  0  0  0  0  0  0  0
    1.3800    0.8170    0.0000 H   0  0  0  0  0  0  0  0  0  0  0  0
    2.0000    0.1970    0.0000 H   0  0  0  0  0  0  0  0  0  0  0  0
    4.4030   -1.9930    0.0000 H   0  0  0  0  0  0  0  0  0  0  0  0
    3.9030    3.4930    0.0000 H   0  0  0  0  0  0  0  0  0  0  0  0
    5.0420    2.2800    0.0000 H   0  0  0  0  0  0  0  0  0  0  0  0
    5.2690    3.1270    0.0000 H   0  0  0  0  0  0  0  0  0  0  0  0
    4.4220    3.3539    0.0000 H   0  0  0  0  0  0  0  0  0  0  0  0
    3.0560    3.7200    0.0000 H   0  0  0  0  0  0  0  0  0  0  0  0
    2.8291    2.8730    0.0000 H   0  0  0  0  0  0  0  0  0  0  0  0
    3.8291    1.1410    0.0000 H   0  0  0  0  0  0  0  0  0  0  0  0
    4.6760    0.9140    0.0000 H   0  0  0  0  0  0  0  0  0  0  0  0
    4.9030    1.7610    0.0000 H   0  0  0  0  0  0  0  0  0  0  0  0
    2.3800   -3.1830    0.0000 H   0  0  0  0  0  0  0  0  0  0  0  0
    3.0000   -3.8030    0.0000 H   0  0  0  0  0  0  0  0  0  0  0  0
    3.6200   -3.1830    0.0000 H   0  0  0  0  0  0  0  0  0  0  0  0
  1  2  1  0  0  0  0
  1 12  1  0  0  0  0
  1 13  1  0  0  0  0
  1 14  1  0  0  0  0
  2  4  1  0  0  0  0
  3  4  1  0  0  0  0
  3  5  1  0  0  0  0
  3  6  1  0  0  0  0
  3 16  1  0  0  0  0
  4  8  1  0  0  0  0
  4  9  1  0  0  0  0
  5  7  1  0  0  0  0
  5 17  1  0  0  0  0
  5 18  1  0  0  0  0
  6 11  1  0  0  0  0
  6 19  1  0  0  0  0
  6 20  1  0  0  0  0
  7 10  1  0  0  0  0
  7 21  1  0  0  0  0
  7 22  1  0  0  0  0
  8 23  1  0  0  0  0
  8 24  1  0  0  0  0
  8 25  1  0  0  0  0
  9 26  1  0  0  0  0
  9 27  1  0  0  0  0
  9 28  1  0  0  0  0
 10 11  2  0  0  0  0
 10 15  1  0  0  0  0
 11 29  1  0  0  0  0
 12 31  1  0  0  0  0
 12 32  1  0  0  0  0
 12 33  1  0  0  0  0
 13 30  1  0  0  0  0
 13 34  1  0  0  0  0
 13 35  1  0  0  0  0
 14 36  1  0  0  0  0
 14 37  1  0  0  0  0
 14 38  1  0  0  0  0
 15 39  1  0  0  0  0
 15 40  1  0  0  0  0
 15 41  1  0  0  0  0
M  END
> <PUBCHEM_COMPOUND_CID>
582864

> <PUBCHEM_COMPOUND_CANONICALIZED>
1

> <PUBCHEM_CACTVS_COMPLEXITY>
248

> <PUBCHEM_CACTVS_HBOND_ACCEPTOR>
1

> <PUBCHEM_CACTVS_HBOND_DONOR>
0

> <PUBCHEM_CACTVS_ROTATABLE_BOND>
3

> <PUBCHEM_CACTVS_SUBSKEYS>
AAADceBwIAgAAAAAAAAAAAAAAAAAAAAAAAAgAAAAAAAAAAAAAAAAGhAAAEAADUSAgABCAAAAAAGAAiBCAAAAAAAgAAAACAAAAAgAAAIAAQAAAAAEgAAIAAOAwEAOgAAAAAAAAAAAAAAAAAAAAAAAAAAAAA==

> <PUBCHEM_IUPAC_OPENEYE_NAME>
trimethyl-[1-methyl-1-(4-methylcyclohex-3-en-1-yl)ethoxy]silane

> <PUBCHEM_IUPAC_CAS_NAME>
trimethyl-[2-(4-methyl-1-cyclohex-3-enyl)propan-2-yloxy]silane

> <PUBCHEM_IUPAC_NAME>
trimethyl-[2-(4-methylcyclohex-3-en-1-yl)propan-2-yloxy]silane

> <PUBCHEM_IUPAC_SYSTEMATIC_NAME>
trimethyl-[2-(4-methylcyclohex-3-en-1-yl)propan-2-yloxy]silane

> <PUBCHEM_IUPAC_TRADITIONAL_NAME>
trimethyl-[1-methyl-1-(4-methylcyclohex-3-en-1-yl)ethoxy]silane

> <PUBCHEM_IUPAC_INCHI>
InChI=1S/C13H26OSi/c1-11-7-9-12(10-8-11)13(2,3)14-15(4,5)6/h7,12H,8-10H2,1-6H3

> <PUBCHEM_IUPAC_INCHIKEY>
QFMNBGCPRJYFNY-UHFFFAOYSA-N

> <PUBCHEM_EXACT_MASS>
226.175292

> <PUBCHEM_MOLECULAR_FORMULA>
C13H26OSi

> <PUBCHEM_MOLECULAR_WEIGHT>
226.43044

> <PUBCHEM_OPENEYE_CAN_SMILES>
CC1=CCC(CC1)C(C)(C)O[Si](C)(C)C

> <PUBCHEM_OPENEYE_ISO_SMILES>
CC1=CCC(CC1)C(C)(C)O[Si](C)(C)C

> <PUBCHEM_CACTVS_TPSA>
9.2

> <PUBCHEM_MONOISOTOPIC_WEIGHT>
226.175292

> <PUBCHEM_TOTAL_CHARGE>
0

> <PUBCHEM_HEAVY_ATOM_COUNT>
15

> <PUBCHEM_ATOM_DEF_STEREO_COUNT>
0

> <PUBCHEM_ATOM_UDEF_STEREO_COUNT>
1

> <PUBCHEM_BOND_DEF_STEREO_COUNT>
0

> <PUBCHEM_BOND_UDEF_STEREO_COUNT>
0

> <PUBCHEM_ISOTOPIC_ATOM_COUNT>
0

> <PUBCHEM_COMPONENT_COUNT>
1

> <PUBCHEM_CACTVS_TAUTO_COUNT>
1

> <PUBCHEM_COORDINATE_TYPE>
1
5
255

> <PUBCHEM_BONDANNOTATIONS>
3  4  3

$$$$

