5058
  -OEChem-06261200292D

 98 98  0     0  0  0  0  0  0999 V2000
   15.8564    0.0000    0.0000 O   0  0  0  0  0  0  0  0  0  0  0  0
   14.9904    1.5000    0.0000 O   0  0  0  0  0  0  0  0  0  0  0  0
   25.3827    0.5000    0.0000 C   0  0  0  0  0  0  0  0  0  0  0  0
   26.2487    0.0000    0.0000 C   0  0  0  0  0  0  0  0  0  0  0  0
   26.2487   -1.0000    0.0000 C   0  0  0  0  0  0  0  0  0  0  0  0
   24.5167    0.0000    0.0000 C   0  0  0  0  0  0  0  0  0  0  0  0
   25.3827   -1.5000    0.0000 C   0  0  0  0  0  0  0  0  0  0  0  0
   24.5167   -1.0000    0.0000 C   0  0  0  0  0  0  0  0  0  0  0  0
   25.8827    1.3660    0.0000 C   0  0  0  0  0  0  0  0  0  0  0  0
   24.8827    1.3660    0.0000 C   0  0  0  0  0  0  0  0  0  0  0  0
   23.6506    0.5000    0.0000 C   0  0  0  0  0  0  0  0  0  0  0  0
   23.6506   -1.5000    0.0000 C   0  0  0  0  0  0  0  0  0  0  0  0
   22.7846    0.0000    0.0000 C   0  0  0  0  0  0  0  0  0  0  0  0
    8.0622    0.5000    0.0000 C   0  0  0  0  0  0  0  0  0  0  0  0
    8.9282    0.0000    0.0000 C   0  0  0  0  0  0  0  0  0  0  0  0
    7.1962    0.0000    0.0000 C   0  0  0  0  0  0  0  0  0  0  0  0
    9.7942    0.5000    0.0000 C   0  0  0  0  0  0  0  0  0  0  0  0
    6.3301    0.5000    0.0000 C   0  0  0  0  0  0  0  0  0  0  0  0
   10.6603    0.0000    0.0000 C   0  0  0  0  0  0  0  0  0  0  0  0
    5.4641    0.0000    0.0000 C   0  0  0  0  0  0  0  0  0  0  0  0
   11.5263    0.5000    0.0000 C   0  0  0  0  0  0  0  0  0  0  0  0
   21.9186    0.5000    0.0000 C   0  0  0  0  0  0  0  0  0  0  0  0
    4.5981    0.5000    0.0000 C   0  0  0  0  0  0  0  0  0  0  0  0
   12.3923    0.0000    0.0000 C   0  0  0  0  0  0  0  0  0  0  0  0
    3.7320    0.0000    0.0000 C   0  0  0  0  0  0  0  0  0  0  0  0
   13.2583    0.5000    0.0000 C   0  0  0  0  0  0  0  0  0  0  0  0
   21.9186    1.5000    0.0000 C   0  0  0  0  0  0  0  0  0  0  0  0
    2.8660    0.5000    0.0000 C   0  0  0  0  0  0  0  0  0  0  0  0
   21.0526    0.0000    0.0000 C   0  0  0  0  0  0  0  0  0  0  0  0
   14.1244    0.0000    0.0000 C   0  0  0  0  0  0  0  0  0  0  0  0
    2.0000    0.0000    0.0000 C   0  0  0  0  0  0  0  0  0  0  0  0
   20.1865    0.5000    0.0000 C   0  0  0  0  0  0  0  0  0  0  0  0
   14.9904    0.5000    0.0000 C   0  0  0  0  0  0  0  0  0  0  0  0
   19.3205    0.0000    0.0000 C   0  0  0  0  0  0  0  0  0  0  0  0
   18.4545    0.5000    0.0000 C   0  0  0  0  0  0  0  0  0  0  0  0
   16.7224    0.5000    0.0000 C   0  0  0  0  0  0  0  0  0  0  0  0
   17.5885    0.0000    0.0000 C   0  0  0  0  0  0  0  0  0  0  0  0
   18.4545    1.5000    0.0000 C   0  0  0  0  0  0  0  0  0  0  0  0
   26.8593   -0.1077    0.0000 H   0  0  0  0  0  0  0  0  0  0  0  0
   26.4608    0.5826    0.0000 H   0  0  0  0  0  0  0  0  0  0  0  0
   26.4608   -1.5826    0.0000 H   0  0  0  0  0  0  0  0  0  0  0  0
   26.8593   -0.8923    0.0000 H   0  0  0  0  0  0  0  0  0  0  0  0
   24.9842   -1.9750    0.0000 H   0  0  0  0  0  0  0  0  0  0  0  0
   25.7812   -1.9750    0.0000 H   0  0  0  0  0  0  0  0  0  0  0  0
   25.4196    1.6760    0.0000 H   0  0  0  0  0  0  0  0  0  0  0  0
   24.5727    1.9030    0.0000 H   0  0  0  0  0  0  0  0  0  0  0  0
   24.3458    1.0560    0.0000 H   0  0  0  0  0  0  0  0  0  0  0  0
   26.4196    1.0560    0.0000 H   0  0  0  0  0  0  0  0  0  0  0  0
   26.1927    1.9030    0.0000 H   0  0  0  0  0  0  0  0  0  0  0  0
   25.3458    1.6760    0.0000 H   0  0  0  0  0  0  0  0  0  0  0  0
   23.6506    1.1200    0.0000 H   0  0  0  0  0  0  0  0  0  0  0  0
   23.3406   -0.9631    0.0000 H   0  0  0  0  0  0  0  0  0  0  0  0
   23.1137   -1.8100    0.0000 H   0  0  0  0  0  0  0  0  0  0  0  0
   23.9606   -2.0369    0.0000 H   0  0  0  0  0  0  0  0  0  0  0  0
   22.7846   -0.6200    0.0000 H   0  0  0  0  0  0  0  0  0  0  0  0
    8.4607    0.9749    0.0000 H   0  0  0  0  0  0  0  0  0  0  0  0
    7.6636    0.9749    0.0000 H   0  0  0  0  0  0  0  0  0  0  0  0
    8.5297   -0.4749    0.0000 H   0  0  0  0  0  0  0  0  0  0  0  0
    9.3267   -0.4749    0.0000 H   0  0  0  0  0  0  0  0  0  0  0  0
    6.7976   -0.4749    0.0000 H   0  0  0  0  0  0  0  0  0  0  0  0
    7.5947   -0.4749    0.0000 H   0  0  0  0  0  0  0  0  0  0  0  0
   10.1928    0.9749    0.0000 H   0  0  0  0  0  0  0  0  0  0  0  0
    9.3957    0.9749    0.0000 H   0  0  0  0  0  0  0  0  0  0  0  0
    6.7287    0.9749    0.0000 H   0  0  0  0  0  0  0  0  0  0  0  0
    5.9316    0.9749    0.0000 H   0  0  0  0  0  0  0  0  0  0  0  0
   10.2617   -0.4749    0.0000 H   0  0  0  0  0  0  0  0  0  0  0  0
   11.0588   -0.4749    0.0000 H   0  0  0  0  0  0  0  0  0  0  0  0
    5.0656   -0.4749    0.0000 H   0  0  0  0  0  0  0  0  0  0  0  0
    5.8626   -0.4749    0.0000 H   0  0  0  0  0  0  0  0  0  0  0  0
   11.9248    0.9749    0.0000 H   0  0  0  0  0  0  0  0  0  0  0  0
   11.1278    0.9749    0.0000 H   0  0  0  0  0  0  0  0  0  0  0  0
    4.9966    0.9749    0.0000 H   0  0  0  0  0  0  0  0  0  0  0  0
    4.1996    0.9749    0.0000 H   0  0  0  0  0  0  0  0  0  0  0  0
   11.9938   -0.4749    0.0000 H   0  0  0  0  0  0  0  0  0  0  0  0
   12.7908   -0.4749    0.0000 H   0  0  0  0  0  0  0  0  0  0  0  0
    3.3335   -0.4749    0.0000 H   0  0  0  0  0  0  0  0  0  0  0  0
    4.1306   -0.4749    0.0000 H   0  0  0  0  0  0  0  0  0  0  0  0
   13.6569    0.9749    0.0000 H   0  0  0  0  0  0  0  0  0  0  0  0
   12.8598    0.9749    0.0000 H   0  0  0  0  0  0  0  0  0  0  0  0
   22.5386    1.5000    0.0000 H   0  0  0  0  0  0  0  0  0  0  0  0
   21.9186    2.1200    0.0000 H   0  0  0  0  0  0  0  0  0  0  0  0
   21.2986    1.5000    0.0000 H   0  0  0  0  0  0  0  0  0  0  0  0
    3.2646    0.9749    0.0000 H   0  0  0  0  0  0  0  0  0  0  0  0
    2.4675    0.9749    0.0000 H   0  0  0  0  0  0  0  0  0  0  0  0
   21.0526   -0.6200    0.0000 H   0  0  0  0  0  0  0  0  0  0  0  0
   13.7258   -0.4749    0.0000 H   0  0  0  0  0  0  0  0  0  0  0  0
   14.5229   -0.4749    0.0000 H   0  0  0  0  0  0  0  0  0  0  0  0
    1.6900    0.5369    0.0000 H   0  0  0  0  0  0  0  0  0  0  0  0
    1.4631   -0.3100    0.0000 H   0  0  0  0  0  0  0  0  0  0  0  0
    2.3100   -0.5369    0.0000 H   0  0  0  0  0  0  0  0  0  0  0  0
   20.1865    1.1200    0.0000 H   0  0  0  0  0  0  0  0  0  0  0  0
   19.3205   -0.6200    0.0000 H   0  0  0  0  0  0  0  0  0  0  0  0
   17.1210    0.9749    0.0000 H   0  0  0  0  0  0  0  0  0  0  0  0
   16.3239    0.9749    0.0000 H   0  0  0  0  0  0  0  0  0  0  0  0
   17.5885   -0.6200    0.0000 H   0  0  0  0  0  0  0  0  0  0  0  0
   19.0745    1.5000    0.0000 H   0  0  0  0  0  0  0  0  0  0  0  0
   18.4545    2.1200    0.0000 H   0  0  0  0  0  0  0  0  0  0  0  0
   17.8345    1.5000    0.0000 H   0  0  0  0  0  0  0  0  0  0  0  0
  1 33  1  0  0  0  0
  1 36  1  0  0  0  0
  2 33  2  0  0  0  0
  3  4  1  0  0  0  0
  3  6  1  0  0  0  0
  3  9  1  0  0  0  0
  3 10  1  0  0  0  0
  4  5  1  0  0  0  0
  4 39  1  0  0  0  0
  4 40  1  0  0  0  0
  5  7  1  0  0  0  0
  5 41  1  0  0  0  0
  5 42  1  0  0  0  0
  6  8  2  0  0  0  0
  6 11  1  0  0  0  0
  7  8  1  0  0  0  0
  7 43  1  0  0  0  0
  7 44  1  0  0  0  0
  8 12  1  0  0  0  0
  9 48  1  0  0  0  0
  9 49  1  0  0  0  0
  9 50  1  0  0  0  0
 10 45  1  0  0  0  0
 10 46  1  0  0  0  0
 10 47  1  0  0  0  0
 11 13  2  3  0  0  0
 11 51  1  0  0  0  0
 12 52  1  0  0  0  0
 12 53  1  0  0  0  0
 12 54  1  0  0  0  0
 13 22  1  0  0  0  0
 13 55  1  0  0  0  0
 14 15  1  0  0  0  0
 14 16  1  0  0  0  0
 14 56  1  0  0  0  0
 14 57  1  0  0  0  0
 15 17  1  0  0  0  0
 15 58  1  0  0  0  0
 15 59  1  0  0  0  0
 16 18  1  0  0  0  0
 16 60  1  0  0  0  0
 16 61  1  0  0  0  0
 17 19  1  0  0  0  0
 17 62  1  0  0  0  0
 17 63  1  0  0  0  0
 18 20  1  0  0  0  0
 18 64  1  0  0  0  0
 18 65  1  0  0  0  0
 19 21  1  0  0  0  0
 19 66  1  0  0  0  0
 19 67  1  0  0  0  0
 20 23  1  0  0  0  0
 20 68  1  0  0  0  0
 20 69  1  0  0  0  0
 21 24  1  0  0  0  0
 21 70  1  0  0  0  0
 21 71  1  0  0  0  0
 22 27  1  0  0  0  0
 22 29  2  3  0  0  0
 23 25  1  0  0  0  0
 23 72  1  0  0  0  0
 23 73  1  0  0  0  0
 24 26  1  0  0  0  0
 24 74  1  0  0  0  0
 24 75  1  0  0  0  0
 25 28  1  0  0  0  0
 25 76  1  0  0  0  0
 25 77  1  0  0  0  0
 26 30  1  0  0  0  0
 26 78  1  0  0  0  0
 26 79  1  0  0  0  0
 27 80  1  0  0  0  0
 27 81  1  0  0  0  0
 27 82  1  0  0  0  0
 28 31  1  0  0  0  0
 28 83  1  0  0  0  0
 28 84  1  0  0  0  0
 29 32  1  0  0  0  0
 29 85  1  0  0  0  0
 30 33  1  0  0  0  0
 30 86  1  0  0  0  0
 30 87  1  0  0  0  0
 31 88  1  0  0  0  0
 31 89  1  0  0  0  0
 31 90  1  0  0  0  0
 32 34  2  3  0  0  0
 32 91  1  0  0  0  0
 34 35  1  0  0  0  0
 34 92  1  0  0  0  0
 35 37  2  3  0  0  0
 35 38  1  0  0  0  0
 36 37  1  0  0  0  0
 36 93  1  0  0  0  0
 36 94  1  0  0  0  0
 37 95  1  0  0  0  0
 38 96  1  0  0  0  0
 38 97  1  0  0  0  0
 38 98  1  0  0  0  0
M  END
> <PUBCHEM_COMPOUND_CID>
5058

> <PUBCHEM_COMPOUND_CANONICALIZED>
1

> <PUBCHEM_CACTVS_COMPLEXITY>
803

> <PUBCHEM_CACTVS_HBOND_ACCEPTOR>
2

> <PUBCHEM_CACTVS_HBOND_DONOR>
0

> <PUBCHEM_CACTVS_ROTATABLE_BOND>
21

> <PUBCHEM_CACTVS_SUBSKEYS>
AAADcfB8MAAAAAAAAAAAAAAAAAAAAAAAAAAgAAAAAAAAAAAAAAAAGgAAAAAADgCggAICCAAABACIAiDSCAAAAAAgAAAICAEAAAgIBBIAIQACEAAEgAAIoAOIyOCPAAAAAAAAAAAAAAAAAAAAAAAAAAAAAA==

> <PUBCHEM_IUPAC_OPENEYE_NAME>
[3,7-dimethyl-9-(2,6,6-trimethylcyclohexen-1-yl)nona-2,4,6,8-tetraenyl] hexadecanoate

> <PUBCHEM_IUPAC_CAS_NAME>
hexadecanoic acid [3,7-dimethyl-9-(2,6,6-trimethyl-1-cyclohexenyl)nona-2,4,6,8-tetraenyl] ester

> <PUBCHEM_IUPAC_NAME>
[3,7-dimethyl-9-(2,6,6-trimethylcyclohexen-1-yl)nona-2,4,6,8-tetraenyl] hexadecanoate

> <PUBCHEM_IUPAC_SYSTEMATIC_NAME>
[3,7-dimethyl-9-(2,6,6-trimethylcyclohexen-1-yl)nona-2,4,6,8-tetraenyl] hexadecanoate

> <PUBCHEM_IUPAC_TRADITIONAL_NAME>
palmitic acid [3,7-dimethyl-9-(2,6,6-trimethylcyclohexen-1-yl)nona-2,4,6,8-tetraenyl] ester

> <PUBCHEM_IUPAC_INCHI>
InChI=1S/C36H60O2/c1-7-8-9-10-11-12-13-14-15-16-17-18-19-25-35(37)38-30-28-32(3)23-20-22-31(2)26-27-34-33(4)24-21-29-36(34,5)6/h20,22-23,26-28H,7-19,21,24-25,29-30H2,1-6H3

> <PUBCHEM_IUPAC_INCHIKEY>
VYGQUTWHTHXGQB-UHFFFAOYSA-N

> <PUBCHEM_XLOGP3>
13.6

> <PUBCHEM_EXACT_MASS>
524.459331

> <PUBCHEM_MOLECULAR_FORMULA>
C36H60O2

> <PUBCHEM_MOLECULAR_WEIGHT>
524.8604

> <PUBCHEM_OPENEYE_CAN_SMILES>
CCCCCCCCCCCCCCCC(=O)OCC=C(C)C=CC=C(C)C=CC1=C(CCCC1(C)C)C

> <PUBCHEM_OPENEYE_ISO_SMILES>
CCCCCCCCCCCCCCCC(=O)OCC=C(C)C=CC=C(C)C=CC1=C(CCCC1(C)C)C

> <PUBCHEM_CACTVS_TPSA>
26.3

> <PUBCHEM_MONOISOTOPIC_WEIGHT>
524.459331

> <PUBCHEM_TOTAL_CHARGE>
0

> <PUBCHEM_HEAVY_ATOM_COUNT>
38

> <PUBCHEM_ATOM_DEF_STEREO_COUNT>
0

> <PUBCHEM_ATOM_UDEF_STEREO_COUNT>
0

> <PUBCHEM_BOND_DEF_STEREO_COUNT>
0

> <PUBCHEM_BOND_UDEF_STEREO_COUNT>
4

> <PUBCHEM_ISOTOPIC_ATOM_COUNT>
0

> <PUBCHEM_COMPONENT_COUNT>
1

> <PUBCHEM_CACTVS_TAUTO_COUNT>
1

> <PUBCHEM_COORDINATE_TYPE>
1
5
255

> <PUBCHEM_BONDANNOTATIONS>
11  13  1
22  29  1
32  34  1
35  37  1

$$$$

