10678
  -OEChem-06261204503D

 30 30  0     0  0  0  0  0  0999 V2000
    0.0002   -1.2558   -0.2426 O   0  0  0  0  0  0  0  0  0  0  0  0
    2.3939    0.0267    0.3000 O   0  0  0  0  0  0  0  0  0  0  0  0
   -2.3949    0.0236    0.3008 O   0  0  0  0  0  0  0  0  0  0  0  0
    0.0060   -2.1317    1.9283 O   0  0  0  0  0  0  0  0  0  0  0  0
    2.3544    0.9557   -1.8483 O   0  0  0  0  0  0  0  0  0  0  0  0
   -2.3576    0.9554   -1.8462 O   0  0  0  0  0  0  0  0  0  0  0  0
   -0.0006   -0.0009    0.2906 C   0  0  0  0  0  0  0  0  0  0  0  0
    1.2070    0.6423    0.5616 C   0  0  0  0  0  0  0  0  0  0  0  0
   -1.2089    0.6406    0.5628 C   0  0  0  0  0  0  0  0  0  0  0  0
    1.2065    1.9270    1.1050 C   0  0  0  0  0  0  0  0  0  0  0  0
   -1.2095    1.9254    1.1061 C   0  0  0  0  0  0  0  0  0  0  0  0
   -0.0018    2.5685    1.3771 C   0  0  0  0  0  0  0  0  0  0  0  0
    0.0027   -2.2831    0.7138 C   0  0  0  0  0  0  0  0  0  0  0  0
    2.8914    0.2673   -0.9906 C   0  0  0  0  0  0  0  0  0  0  0  0
   -2.8924    0.2635   -0.9900 C   0  0  0  0  0  0  0  0  0  0  0  0
    0.0035   -3.6183    0.0303 C   0  0  0  0  0  0  0  0  0  0  0  0
    4.1950   -0.4504   -1.1795 C   0  0  0  0  0  0  0  0  0  0  0  0
   -4.1949   -0.4559   -1.1792 C   0  0  0  0  0  0  0  0  0  0  0  0
    2.1434    2.4339    1.3194 H   0  0  0  0  0  0  0  0  0  0  0  0
   -2.1470    2.4311    1.3211 H   0  0  0  0  0  0  0  0  0  0  0  0
   -0.0023    3.5688    1.8003 H   0  0  0  0  0  0  0  0  0  0  0  0
   -0.8933   -3.7172   -0.5862 H   0  0  0  0  0  0  0  0  0  0  0  0
   -0.0006   -4.4115    0.7832 H   0  0  0  0  0  0  0  0  0  0  0  0
    0.9043   -3.7193   -0.5799 H   0  0  0  0  0  0  0  0  0  0  0  0
    4.0426   -1.5266   -1.0674 H   0  0  0  0  0  0  0  0  0  0  0  0
    4.5752   -0.2536   -2.1859 H   0  0  0  0  0  0  0  0  0  0  0  0
    4.9253   -0.0864   -0.4527 H   0  0  0  0  0  0  0  0  0  0  0  0
   -4.0431   -1.5312   -1.0572 H   0  0  0  0  0  0  0  0  0  0  0  0
   -4.5698   -0.2683   -2.1894 H   0  0  0  0  0  0  0  0  0  0  0  0
   -4.9288   -0.0857   -0.4592 H   0  0  0  0  0  0  0  0  0  0  0  0
  1  7  1  0  0  0  0
  1 13  1  0  0  0  0
  2  8  1  0  0  0  0
  2 14  1  0  0  0  0
  3  9  1  0  0  0  0
  3 15  1  0  0  0  0
  4 13  2  0  0  0  0
  5 14  2  0  0  0  0
  6 15  2  0  0  0  0
  7  8  2  0  0  0  0
  7  9  1  0  0  0  0
  8 10  1  0  0  0  0
  9 11  2  0  0  0  0
 10 12  2  0  0  0  0
 10 19  1  0  0  0  0
 11 12  1  0  0  0  0
 11 20  1  0  0  0  0
 12 21  1  0  0  0  0
 13 16  1  0  0  0  0
 14 17  1  0  0  0  0
 15 18  1  0  0  0  0
 16 22  1  0  0  0  0
 16 23  1  0  0  0  0
 16 24  1  0  0  0  0
 17 25  1  0  0  0  0
 17 26  1  0  0  0  0
 17 27  1  0  0  0  0
 18 28  1  0  0  0  0
 18 29  1  0  0  0  0
 18 30  1  0  0  0  0
M  END
> <PUBCHEM_COMPOUND_CID>
10678

> <PUBCHEM_CONFORMER_RMSD>
0.8

> <PUBCHEM_CONFORMER_DIVERSEORDER>
1
48
23
49
22
34
44
36
35
40
46
21
5
31
26
32
33
9
4
38
3
27
19
12
42
30
37
24
6
28
15
8
47
43
16
11
50
18
39
51
41
45
25
10
14
29
13
17
2
7
20

> <PUBCHEM_MMFF94_PARTIAL_CHARGES>
21
1 -0.23
10 -0.15
11 -0.15
12 -0.15
13 0.66
14 0.66
15 0.66
16 0.06
17 0.06
18 0.06
19 0.15
2 -0.23
20 0.15
21 0.15
3 -0.23
4 -0.57
5 -0.57
6 -0.57
7 0.08
8 0.08
9 0.08

> <PUBCHEM_EFFECTIVE_ROTOR_COUNT>
6

> <PUBCHEM_PHARMACOPHORE_FEATURES>
4
1 4 acceptor
1 5 acceptor
1 6 acceptor
6 7 8 9 10 11 12 rings

> <PUBCHEM_HEAVY_ATOM_COUNT>
18

> <PUBCHEM_ATOM_DEF_STEREO_COUNT>
0

> <PUBCHEM_ATOM_UDEF_STEREO_COUNT>
0

> <PUBCHEM_BOND_DEF_STEREO_COUNT>
0

> <PUBCHEM_BOND_UDEF_STEREO_COUNT>
0

> <PUBCHEM_ISOTOPIC_ATOM_COUNT>
0

> <PUBCHEM_COMPONENT_COUNT>
1

> <PUBCHEM_CACTVS_TAUTO_COUNT>
1

> <PUBCHEM_CONFORMER_ID>
000029B600000001

> <PUBCHEM_MMFF94_ENERGY>
55.3205

> <PUBCHEM_FEATURE_SELFOVERLAP>
20.297

> <PUBCHEM_SHAPE_FINGERPRINT>
10062212 137 17901940065473217150
10353120 184 18187082858170662441
108634 29 17186754635552855087
10906281 52 17970064448731408104
12592029 89 17346314951030956706
13149001 5 18192712245856228508
13544592 271 17608950680826562472
14181834 199 17622772903349816819
14943834 7 17687461681900296776
15163728 17 16915078845380179366
16945 1 18260266351882999824
18186145 218 18337400352910826997
187816 3 18408037416453481300
20511035 2 17107943853601967504
20645476 183 17775002349868213058
20645477 70 17679047932058668797
22112679 90 17752777002239076553
23382010 3 18271245993441201629
23388829 49 17905901627158243178
23402539 116 18187640358221925100
23419403 2 17830717773580285681
23526113 38 18116441349009276936
23559900 14 18335696106331246156
2748010 2 17829044312756642032
298252 57 17275105020333737420
3060560 45 18194712330990829365
3250762 1 17687468966180654929
34934 24 17897717902067729217
4175511 335 18196960913684125423
68419 9 17756711093287078529
81228 2 17479741516053845299

> <PUBCHEM_SHAPE_MULTIPOLES>
335.22
5.12
3.01
1.68
0
1.83
-0.31
0.27
-4.11
0
1.71
0
-0.07
0

> <PUBCHEM_SHAPE_SELFOVERLAP>
696.234

> <PUBCHEM_SHAPE_VOLUME>
186.4

> <PUBCHEM_COORDINATE_TYPE>
2
5
10

$$$$

