5701
  -OEChem-06261200492D

 82 86  0     1  0  0  0  0  0999 V2000
    7.0854   -1.1464    0.0000 O   0  0  0  0  0  0  0  0  0  0  0  0
    4.6501    1.4938    0.0000 O   0  0  0  0  0  0  0  0  0  0  0  0
    8.7472   -1.6998    0.0000 N   0  0  3  0  0  0  0  0  0  0  0  0
    2.9180    1.4938    0.0000 N   0  0  3  0  0  0  0  0  0  0  0  0
    8.3824    0.0015    0.0000 C   0  0  3  0  0  0  0  0  0  0  0  0
    3.8001   -0.0477    0.0000 C   0  0  3  0  0  0  0  0  0  0  0  0
    8.0653   -0.9469    0.0000 C   0  0  3  0  0  0  0  0  0  0  0  0
    3.7841    0.9938    0.0000 C   0  0  3  0  0  0  0  0  0  0  0  0
    9.3776    0.2270    0.0000 C   0  0  0  0  0  0  0  0  0  0  0  0
    2.9021   -0.5755    0.0000 C   0  0  0  0  0  0  0  0  0  0  0  0
    6.7682   -2.0948    0.0000 C   0  0  3  0  0  0  0  0  0  0  0  0
    4.6501    2.4938    0.0000 C   0  0  3  0  0  0  0  0  0  0  0  0
    9.7474   -1.4974    0.0000 C   0  0  0  0  0  0  0  0  0  0  0  0
    2.0080    0.9870    0.0000 C   0  0  0  0  0  0  0  0  0  0  0  0
    7.7197    0.7503    0.0000 C   0  0  0  0  0  0  0  0  0  0  0  0
    3.4830   -0.9961    0.0000 C   0  0  0  0  0  0  0  0  0  0  0  0
   10.0647   -0.5275    0.0000 C   0  0  0  0  0  0  0  0  0  0  0  0
    2.0000   -0.0546    0.0000 C   0  0  0  0  0  0  0  0  0  0  0  0
    8.4288   -2.6644    0.0000 C   0  0  0  0  0  0  0  0  0  0  0  0
    2.9180    2.4938    0.0000 C   0  0  0  0  0  0  0  0  0  0  0  0
    7.4326   -2.8632    0.0000 C   0  0  0  0  0  0  0  0  0  0  0  0
    3.7841    2.9938    0.0000 C   0  0  0  0  0  0  0  0  0  0  0  0
    5.7883   -2.2943    0.0000 C   0  0  0  0  0  0  0  0  0  0  0  0
    4.9672    3.4422    0.0000 C   0  0  0  0  0  0  0  0  0  0  0  0
    7.7806    1.7485    0.0000 C   0  0  0  0  0  0  0  0  0  0  0  0
    4.1457   -1.7449    0.0000 C   0  0  0  0  0  0  0  0  0  0  0  0
    5.4711   -3.2427    0.0000 C   0  0  0  0  0  0  0  0  0  0  0  0
    5.9385    3.2777    0.0000 C   0  0  0  0  0  0  0  0  0  0  0  0
    7.1179    2.4973    0.0000 C   0  0  0  0  0  0  0  0  0  0  0  0
    3.8285   -2.6933    0.0000 C   0  0  0  0  0  0  0  0  0  0  0  0
    4.4912   -3.4422    0.0000 C   0  0  0  0  0  0  0  0  0  0  0  0
    6.1380    2.2978    0.0000 C   0  0  0  0  0  0  0  0  0  0  0  0
    4.4128   -0.1426    0.0000 H   0  0  0  0  0  0  0  0  0  0  0  0
    8.7984   -0.4583    0.0000 H   0  0  0  0  0  0  0  0  0  0  0  0
    7.8720   -1.5360    0.0000 H   0  0  0  0  0  0  0  0  0  0  0  0
    3.7841    1.6138    0.0000 H   0  0  0  0  0  0  0  0  0  0  0  0
    9.9007    0.5598    0.0000 H   0  0  0  0  0  0  0  0  0  0  0  0
    9.1392    0.7993    0.0000 H   0  0  0  0  0  0  0  0  0  0  0  0
    2.5048   -1.0514    0.0000 H   0  0  0  0  0  0  0  0  0  0  0  0
    3.3030   -1.0484    0.0000 H   0  0  0  0  0  0  0  0  0  0  0  0
    4.4304    3.0736    0.0000 H   0  0  0  0  0  0  0  0  0  0  0  0
    6.5682   -2.6816    0.0000 H   0  0  0  0  0  0  0  0  0  0  0  0
    1.8035    1.5722    0.0000 H   0  0  0  0  0  0  0  0  0  0  0  0
    1.3964    0.8856    0.0000 H   0  0  0  0  0  0  0  0  0  0  0  0
    9.7646   -2.1171    0.0000 H   0  0  0  0  0  0  0  0  0  0  0  0
   10.3610   -1.5865    0.0000 H   0  0  0  0  0  0  0  0  0  0  0  0
    2.9380   -0.7003    0.0000 H   0  0  0  0  0  0  0  0  0  0  0  0
    3.0971   -1.4814    0.0000 H   0  0  0  0  0  0  0  0  0  0  0  0
    7.1317    0.9470    0.0000 H   0  0  0  0  0  0  0  0  0  0  0  0
    7.3776    0.2333    0.0000 H   0  0  0  0  0  0  0  0  0  0  0  0
    1.3900    0.0562    0.0000 H   0  0  0  0  0  0  0  0  0  0  0  0
    1.7864   -0.6367    0.0000 H   0  0  0  0  0  0  0  0  0  0  0  0
   10.6123   -0.8183    0.0000 H   0  0  0  0  0  0  0  0  0  0  0  0
   10.4449   -0.0378    0.0000 H   0  0  0  0  0  0  0  0  0  0  0  0
    2.7060    3.0764    0.0000 H   0  0  0  0  0  0  0  0  0  0  0  0
    2.3074    2.3861    0.0000 H   0  0  0  0  0  0  0  0  0  0  0  0
    8.4443   -3.2842    0.0000 H   0  0  0  0  0  0  0  0  0  0  0  0
    9.0421   -2.7552    0.0000 H   0  0  0  0  0  0  0  0  0  0  0  0
    4.1826    3.4688    0.0000 H   0  0  0  0  0  0  0  0  0  0  0  0
    3.3855    3.4688    0.0000 H   0  0  0  0  0  0  0  0  0  0  0  0
    6.9011   -3.1825    0.0000 H   0  0  0  0  0  0  0  0  0  0  0  0
    7.6562   -3.4415    0.0000 H   0  0  0  0  0  0  0  0  0  0  0  0
    5.7720   -1.6745    0.0000 H   0  0  0  0  0  0  0  0  0  0  0  0
    5.1751   -2.2027    0.0000 H   0  0  0  0  0  0  0  0  0  0  0  0
    5.1022    4.0473    0.0000 H   0  0  0  0  0  0  0  0  0  0  0  0
    4.3699    3.6082    0.0000 H   0  0  0  0  0  0  0  0  0  0  0  0
    8.3686    1.5518    0.0000 H   0  0  0  0  0  0  0  0  0  0  0  0
    8.1227    2.2655    0.0000 H   0  0  0  0  0  0  0  0  0  0  0  0
    4.6906   -2.0407    0.0000 H   0  0  0  0  0  0  0  0  0  0  0  0
    4.5316   -1.2597    0.0000 H   0  0  0  0  0  0  0  0  0  0  0  0
    5.4874   -3.8624    0.0000 H   0  0  0  0  0  0  0  0  0  0  0  0
    6.0843   -3.3342    0.0000 H   0  0  0  0  0  0  0  0  0  0  0  0
    6.5566    3.3260    0.0000 H   0  0  0  0  0  0  0  0  0  0  0  0
    5.9663    3.8971    0.0000 H   0  0  0  0  0  0  0  0  0  0  0  0
    7.6465    2.8214    0.0000 H   0  0  0  0  0  0  0  0  0  0  0  0
    6.8906    3.0742    0.0000 H   0  0  0  0  0  0  0  0  0  0  0  0
    3.2836   -2.3976    0.0000 H   0  0  0  0  0  0  0  0  0  0  0  0
    3.4426   -3.1786    0.0000 H   0  0  0  0  0  0  0  0  0  0  0  0
    3.9626   -3.7662    0.0000 H   0  0  0  0  0  0  0  0  0  0  0  0
    4.7185   -4.0190    0.0000 H   0  0  0  0  0  0  0  0  0  0  0  0
    5.5304    2.1741    0.0000 H   0  0  0  0  0  0  0  0  0  0  0  0
    6.2617    1.6903    0.0000 H   0  0  0  0  0  0  0  0  0  0  0  0
  1  7  1  0  0  0  0
  1 11  1  0  0  0  0
  2  8  1  0  0  0  0
  2 12  1  0  0  0  0
  3  7  1  0  0  0  0
  3 13  1  0  0  0  0
  3 19  1  0  0  0  0
  4  8  1  0  0  0  0
  4 14  1  0  0  0  0
  4 20  1  0  0  0  0
  5  7  1  0  0  0  0
  5  9  1  0  0  0  0
  5 15  1  0  0  0  0
  5 34  1  0  0  0  0
  6  8  1  0  0  0  0
  6 10  1  0  0  0  0
  6 16  1  0  0  0  0
  6 33  1  0  0  0  0
  7 35  1  0  0  0  0
  8 36  1  0  0  0  0
  9 17  1  0  0  0  0
  9 37  1  0  0  0  0
  9 38  1  0  0  0  0
 10 18  1  0  0  0  0
 10 39  1  0  0  0  0
 10 40  1  0  0  0  0
 11 21  1  0  0  0  0
 11 23  1  0  0  0  0
 11 42  1  0  0  0  0
 12 22  1  0  0  0  0
 12 24  1  0  0  0  0
 12 41  1  0  0  0  0
 13 17  1  0  0  0  0
 13 45  1  0  0  0  0
 13 46  1  0  0  0  0
 14 18  1  0  0  0  0
 14 43  1  0  0  0  0
 14 44  1  0  0  0  0
 15 25  1  0  0  0  0
 15 49  1  0  0  0  0
 15 50  1  0  0  0  0
 16 26  1  0  0  0  0
 16 47  1  0  0  0  0
 16 48  1  0  0  0  0
 17 53  1  0  0  0  0
 17 54  1  0  0  0  0
 18 51  1  0  0  0  0
 18 52  1  0  0  0  0
 19 21  1  0  0  0  0
 19 57  1  0  0  0  0
 19 58  1  0  0  0  0
 20 22  1  0  0  0  0
 20 55  1  0  0  0  0
 20 56  1  0  0  0  0
 21 61  1  0  0  0  0
 21 62  1  0  0  0  0
 22 59  1  0  0  0  0
 22 60  1  0  0  0  0
 23 27  1  0  0  0  0
 23 63  1  0  0  0  0
 23 64  1  0  0  0  0
 24 28  1  0  0  0  0
 24 65  1  0  0  0  0
 24 66  1  0  0  0  0
 25 29  1  0  0  0  0
 25 67  1  0  0  0  0
 25 68  1  0  0  0  0
 26 30  1  0  0  0  0
 26 69  1  0  0  0  0
 26 70  1  0  0  0  0
 27 31  1  0  0  0  0
 27 71  1  0  0  0  0
 27 72  1  0  0  0  0
 28 32  1  0  0  0  0
 28 73  1  0  0  0  0
 28 74  1  0  0  0  0
 29 32  1  0  0  0  0
 29 75  1  0  0  0  0
 29 76  1  0  0  0  0
 30 31  1  0  0  0  0
 30 77  1  0  0  0  0
 30 78  1  0  0  0  0
 31 79  1  0  0  0  0
 31 80  1  0  0  0  0
 32 81  1  0  0  0  0
 32 82  1  0  0  0  0
M  END
> <PUBCHEM_COMPOUND_CID>
5701

> <PUBCHEM_COMPOUND_CANONICALIZED>
1

> <PUBCHEM_CACTVS_COMPLEXITY>
510

> <PUBCHEM_CACTVS_HBOND_ACCEPTOR>
4

> <PUBCHEM_CACTVS_HBOND_DONOR>
0

> <PUBCHEM_CACTVS_ROTATABLE_BOND>
0

> <PUBCHEM_CACTVS_SUBSKEYS>
AAADcfB7MAAAAAAAAAAAAAAAAAAAAAAAAAAsWLFgAAAAAAAAAAAAHgAAAAAADRThgAYAAAMABAAAAAAAAAAAAAAAAAAAAAAIAAAAAAIAgAAOAAAGAACAAAGQ0OIOAAAAAAAAAAAAAAAAAAAAAAAAAAAAAA==

> <PUBCHEM_IUPAC_INCHI>
InChI=1S/C28H50N2O2/c1-3-7-15-25-17-21-30-20-10-14-24(28(30)31-25)12-6-2-4-8-16-26-18-22-29-19-9-13-23(11-5-1)27(29)32-26/h23-28H,1-22H2

> <PUBCHEM_IUPAC_INCHIKEY>
PQYOPBRFUUEHRC-UHFFFAOYSA-N

> <PUBCHEM_XLOGP3_AA>
7.4

> <PUBCHEM_EXACT_MASS>
446.387229

> <PUBCHEM_MOLECULAR_FORMULA>
C28H50N2O2

> <PUBCHEM_MOLECULAR_WEIGHT>
446.7088

> <PUBCHEM_OPENEYE_CAN_SMILES>
C1CCCC2CCN3CCCC(C3O2)CCCCCCC4CCN5CCCC(C5O4)CC1

> <PUBCHEM_OPENEYE_ISO_SMILES>
C1CCCC2CCN3CCCC(C3O2)CCCCCCC4CCN5CCCC(C5O4)CC1

> <PUBCHEM_CACTVS_TPSA>
24.9

> <PUBCHEM_MONOISOTOPIC_WEIGHT>
446.387229

> <PUBCHEM_TOTAL_CHARGE>
0

> <PUBCHEM_HEAVY_ATOM_COUNT>
32

> <PUBCHEM_ATOM_DEF_STEREO_COUNT>
0

> <PUBCHEM_ATOM_UDEF_STEREO_COUNT>
6

> <PUBCHEM_BOND_DEF_STEREO_COUNT>
0

> <PUBCHEM_BOND_UDEF_STEREO_COUNT>
0

> <PUBCHEM_ISOTOPIC_ATOM_COUNT>
0

> <PUBCHEM_COMPONENT_COUNT>
1

> <PUBCHEM_CACTVS_TAUTO_COUNT>
1

> <PUBCHEM_COORDINATE_TYPE>
1
5
255

> <PUBCHEM_BONDANNOTATIONS>
7  1  3
11  21  3
12  22  3
8  2  3
5  15  3
6  16  3

$$$$

