13093
  -OEChem-06261207453D

 32 34  0     1  0  0  0  0  0999 V2000
    4.4296   -2.2142   -0.3377 S   0  0  0  0  0  0  0  0  0  0  0  0
   -2.2971   -0.2032    0.8954 O   0  0  0  0  0  0  0  0  0  0  0  0
   -3.4406    2.4947   -0.0764 O   0  0  0  0  0  0  0  0  0  0  0  0
   -4.3216   -2.1197    0.6845 O   0  0  0  0  0  0  0  0  0  0  0  0
   -0.0767   -0.2775    0.0636 N   0  0  0  0  0  0  0  0  0  0  0  0
    1.1841   -2.0976   -0.2249 N   0  0  0  0  0  0  0  0  0  0  0  0
    1.6660    1.4059    0.2457 N   0  0  0  0  0  0  0  0  0  0  0  0
    3.8865    0.4137    0.0428 N   0  0  0  0  0  0  0  0  0  0  0  0
    3.6014    2.7153    0.3715 N   0  0  0  0  0  0  0  0  0  0  0  0
   -1.2733    0.5423    0.2139 C   0  0  1  0  0  0  0  0  0  0  0  0
   -3.3236    1.2243   -0.7133 C   0  0  1  0  0  0  0  0  0  0  0  0
   -1.8774    1.0155   -1.1005 C   0  0  0  0  0  0  0  0  0  0  0  0
   -3.5745    0.1173    0.3051 C   0  0  1  0  0  0  0  0  0  0  0  0
   -4.1316   -1.1492   -0.3300 C   0  0  0  0  0  0  0  0  0  0  0  0
    1.2228    0.1500    0.0846 C   0  0  0  0  0  0  0  0  0  0  0  0
   -0.0449   -1.6362   -0.1245 C   0  0  0  0  0  0  0  0  0  0  0  0
    1.9866   -0.9919   -0.0961 C   0  0  0  0  0  0  0  0  0  0  0  0
    3.3681   -0.8282   -0.1143 C   0  0  0  0  0  0  0  0  0  0  0  0
    3.0160    1.4384    0.2106 C   0  0  0  0  0  0  0  0  0  0  0  0
   -1.0061    1.3876    0.8592 H   0  0  0  0  0  0  0  0  0  0  0  0
   -4.0102    1.2142   -1.5638 H   0  0  0  0  0  0  0  0  0  0  0  0
   -1.8034    0.2355   -1.8675 H   0  0  0  0  0  0  0  0  0  0  0  0
   -1.3799    1.9168   -1.4718 H   0  0  0  0  0  0  0  0  0  0  0  0
   -4.2285    0.4450    1.1212 H   0  0  0  0  0  0  0  0  0  0  0  0
   -3.4353   -1.5672   -1.0641 H   0  0  0  0  0  0  0  0  0  0  0  0
   -5.0935   -0.9539   -0.8141 H   0  0  0  0  0  0  0  0  0  0  0  0
   -0.9425   -2.2365   -0.1854 H   0  0  0  0  0  0  0  0  0  0  0  0
   -2.9503    2.4741    0.7623 H   0  0  0  0  0  0  0  0  0  0  0  0
   -4.6780   -2.9165    0.2560 H   0  0  0  0  0  0  0  0  0  0  0  0
    3.4724   -3.1488   -0.4392 H   0  0  0  0  0  0  0  0  0  0  0  0
    3.0060    3.5214    0.5018 H   0  0  0  0  0  0  0  0  0  0  0  0
    4.6078    2.8058    0.3555 H   0  0  0  0  0  0  0  0  0  0  0  0
  1 18  1  0  0  0  0
  1 30  1  0  0  0  0
  2 10  1  0  0  0  0
  2 13  1  0  0  0  0
  3 11  1  0  0  0  0
  3 28  1  0  0  0  0
  4 14  1  0  0  0  0
  4 29  1  0  0  0  0
  5 10  1  0  0  0  0
  5 15  1  0  0  0  0
  5 16  1  0  0  0  0
  6 16  2  0  0  0  0
  6 17  1  0  0  0  0
  7 15  1  0  0  0  0
  7 19  2  0  0  0  0
  8 18  2  0  0  0  0
  8 19  1  0  0  0  0
  9 19  1  0  0  0  0
  9 31  1  0  0  0  0
  9 32  1  0  0  0  0
 10 12  1  0  0  0  0
 10 20  1  0  0  0  0
 11 12  1  0  0  0  0
 11 13  1  0  0  0  0
 11 21  1  0  0  0  0
 12 22  1  0  0  0  0
 12 23  1  0  0  0  0
 13 14  1  0  0  0  0
 13 24  1  0  0  0  0
 14 25  1  0  0  0  0
 14 26  1  0  0  0  0
 15 17  2  0  0  0  0
 16 27  1  0  0  0  0
 17 18  1  0  0  0  0
M  END
> <PUBCHEM_COMPOUND_CID>
13093

> <PUBCHEM_CONFORMER_RMSD>
0.6

> <PUBCHEM_CONFORMER_DIVERSEORDER>
1
5
9
11
15
17
21
20
8
19
12
13
16
2
3
18
10
14
7
6
4

> <PUBCHEM_MMFF94_PARTIAL_CHARGES>
24
1 -0.28
10 0.54
11 0.28
13 0.28
14 0.28
15 0.11
16 0.04
17 0.23
18 0.41
19 0.72
2 -0.56
27 0.15
28 0.4
29 0.4
3 -0.68
30 0.18
31 0.4
32 0.4
4 -0.68
5 0.05
6 -0.57
7 -0.57
8 -0.62
9 -0.9

> <PUBCHEM_EFFECTIVE_ROTOR_COUNT>
3

> <PUBCHEM_PHARMACOPHORE_FEATURES>
12
1 2 acceptor
1 3 acceptor
1 3 donor
1 4 acceptor
1 4 donor
1 8 acceptor
1 9 donor
3 5 6 16 cation
4 7 8 9 19 cation
5 2 10 11 12 13 rings
5 5 6 15 16 17 rings
6 7 8 15 17 18 19 rings

> <PUBCHEM_HEAVY_ATOM_COUNT>
19

> <PUBCHEM_ATOM_DEF_STEREO_COUNT>
2

> <PUBCHEM_ATOM_UDEF_STEREO_COUNT>
1

> <PUBCHEM_BOND_DEF_STEREO_COUNT>
0

> <PUBCHEM_BOND_UDEF_STEREO_COUNT>
0

> <PUBCHEM_ISOTOPIC_ATOM_COUNT>
0

> <PUBCHEM_COMPONENT_COUNT>
1

> <PUBCHEM_CACTVS_TAUTO_COUNT>
6

> <PUBCHEM_CONFORMER_ID>
0000332500000001

> <PUBCHEM_MMFF94_ENERGY>
42.8124

> <PUBCHEM_FEATURE_SELFOVERLAP>
61.03

> <PUBCHEM_SHAPE_FINGERPRINT>
10608611 8 18412829118013083237
11405975 8 18338516451480565993
11471102 20 18336831999914687284
11615757 297 18186516618082063715
12403259 226 18412548734089778716
12403259 415 18341895190367076820
12403260 363 18412273830244141394
12507557 5 18335987570510162136
12916754 54 18408601465934542907
13134695 92 17459205121633362328
13583140 156 17488489445164628440
13675066 3 17968387835200730226
14289901 80 18408326570789532161
15196674 1 18410293626876793460
15219456 202 18413108381065604269
16945 1 18262234538380252694
17492 89 18410293609761065787
18186145 218 18186794799061522704
19591789 44 18410575080532298150
19930381 70 18193562160055894801
200 152 18113626698596019783
20645477 56 18128816529259759309
20645477 70 18261679267443365094
20681677 76 18341619213085512109
21065198 57 18411419557059540141
21267235 1 18409158939615050039
21709351 56 18335990864613038814
221490 88 18410570691096560690
23402539 116 16916781945884051494
23557571 272 17775569758255949501
23559900 14 18338524152309584674
2748010 2 18337665309606691606
2838139 119 15141542229556477736
2871803 45 18343027670791765663
296302 2 9079110064124545366
3286 77 18412826901962647262
335352 9 18193839472902496268
350125 39 18410569561525176766
4214541 1 18338797926594400333
5104073 3 18410575106148498297
5281201 14 18410571807856428348
5283173 99 18059030453446488469
6333272 397 18340208466737034024
77779 3 18410292523260238893
9709674 26 18341890766661629243

> <PUBCHEM_SHAPE_MULTIPOLES>
352.35
9.07
2.6
0.77
1.21
0.43
0.07
-1.24
0.05
-0.99
-0.08
0.36
0.02
1

> <PUBCHEM_SHAPE_SELFOVERLAP>
753.83

> <PUBCHEM_SHAPE_VOLUME>
198.4

> <PUBCHEM_COORDINATE_TYPE>
2
5
10

$$$$

