13882
  -OEChem-06241222403D

 18 18  0     0  0  0  0  0  0999 V2000
    3.8743    0.6624    0.6294 Cl  0  0  0  0  0  0  0  0  0  0  0  0
    1.7857   -0.8291   -0.8176 O   0  0  0  0  0  0  0  0  0  0  0  0
   -0.0614   -3.1036    0.1657 N   0  0  0  0  0  0  0  0  0  0  0  0
   -0.0946    0.4046   -0.1439 C   0  0  0  0  0  0  0  0  0  0  0  0
   -0.9548   -0.6739    0.0620 C   0  0  0  0  0  0  0  0  0  0  0  0
   -0.6030    1.7025   -0.1944 C   0  0  0  0  0  0  0  0  0  0  0  0
    1.3427    0.2190   -0.3105 C   0  0  0  0  0  0  0  0  0  0  0  0
   -2.3236   -0.4545    0.2174 C   0  0  0  0  0  0  0  0  0  0  0  0
   -1.9717    1.9220   -0.0389 C   0  0  0  0  0  0  0  0  0  0  0  0
   -2.8319    0.8435    0.1669 C   0  0  0  0  0  0  0  0  0  0  0  0
    2.2993    1.3237    0.1448 C   0  0  0  0  0  0  0  0  0  0  0  0
   -0.4611   -2.0166    0.1193 C   0  0  0  0  0  0  0  0  0  0  0  0
    0.0354    2.5637   -0.3705 H   0  0  0  0  0  0  0  0  0  0  0  0
   -3.0083   -1.2839    0.3785 H   0  0  0  0  0  0  0  0  0  0  0  0
   -2.3685    2.9321   -0.0822 H   0  0  0  0  0  0  0  0  0  0  0  0
   -3.8977    1.0145    0.2869 H   0  0  0  0  0  0  0  0  0  0  0  0
    2.4600    2.0256   -0.6777 H   0  0  0  0  0  0  0  0  0  0  0  0
    1.8982    1.8468    1.0164 H   0  0  0  0  0  0  0  0  0  0  0  0
  1 11  1  0  0  0  0
  2  7  2  0  0  0  0
  3 12  3  0  0  0  0
  4  5  1  0  0  0  0
  4  6  2  0  0  0  0
  4  7  1  0  0  0  0
  5  8  2  0  0  0  0
  5 12  1  0  0  0  0
  6  9  1  0  0  0  0
  6 13  1  0  0  0  0
  7 11  1  0  0  0  0
  8 10  1  0  0  0  0
  8 14  1  0  0  0  0
  9 10  2  0  0  0  0
  9 15  1  0  0  0  0
 10 16  1  0  0  0  0
 11 17  1  0  0  0  0
 11 18  1  0  0  0  0
M  END
> <PUBCHEM_COMPOUND_CID>
13882

> <PUBCHEM_CONFORMER_RMSD>
0.6

> <PUBCHEM_CONFORMER_DIVERSEORDER>
1
9
5
7
3
8
4
2
6
10

> <PUBCHEM_MMFF94_PARTIAL_CHARGES>
16
1 -0.29
10 -0.15
11 0.35
12 0.48
13 0.15
14 0.15
15 0.15
16 0.15
2 -0.57
3 -0.56
4 0.09
5 0.07
6 -0.15
7 0.42
8 -0.15
9 -0.15

> <PUBCHEM_EFFECTIVE_ROTOR_COUNT>
2

> <PUBCHEM_PHARMACOPHORE_FEATURES>
3
1 2 acceptor
1 3 acceptor
6 4 5 6 8 9 10 rings

> <PUBCHEM_HEAVY_ATOM_COUNT>
12

> <PUBCHEM_ATOM_DEF_STEREO_COUNT>
0

> <PUBCHEM_ATOM_UDEF_STEREO_COUNT>
0

> <PUBCHEM_BOND_DEF_STEREO_COUNT>
0

> <PUBCHEM_BOND_UDEF_STEREO_COUNT>
0

> <PUBCHEM_ISOTOPIC_ATOM_COUNT>
0

> <PUBCHEM_COMPONENT_COUNT>
1

> <PUBCHEM_CACTVS_TAUTO_COUNT>
2

> <PUBCHEM_CONFORMER_ID>
0000363A00000001

> <PUBCHEM_MMFF94_ENERGY>
29.8488

> <PUBCHEM_FEATURE_SELFOVERLAP>
15.223

> <PUBCHEM_SHAPE_FINGERPRINT>
1 1 18266739280073285231
12251169 10 18341057307247240600
13024252 1 14404916781632679341
13380535 76 18334579027416661734
14614273 12 18201164363965078029
15669948 3 18197214750762654764
16945 1 18266449915120351925
193761 8 17835239322076608509
20510252 161 18333730204160911832
20645464 45 18260264144486230220
20871998 184 18118115870890439222
21040471 1 18411971451566597197
23211744 41 18187922910644336535
23402539 116 18191037719954509575
23552423 10 18124584538615182565
23559900 14 18334565851348599988
257057 1 17400652519154390054
2748010 2 18339911701639709543
305870 269 18268998754998666688
43471831 8 18342741857286176107
5255222 1 17837199742492171477
5706482 22 18338530693396960114
6333449 129 18409169870153603636
7364860 26 17976261557878243171
75552 356 18268150864188305720
81228 2 18122055408178440667

> <PUBCHEM_SHAPE_MULTIPOLES>
237.97
4.46
2.52
0.71
3.63
1.78
0
-1.95
-0.85
-0.79
-0.07
0.19
0
0.23

> <PUBCHEM_SHAPE_SELFOVERLAP>
488.985

> <PUBCHEM_SHAPE_VOLUME>
137.4

> <PUBCHEM_COORDINATE_TYPE>
2
5
10

$$$$

