7846973
  -OEChem-06241222483D

 46 48  0     1  0  0  0  0  0999 V2000
    0.2730    3.2679    1.2200 S   0  0  0  0  0  0  0  0  0  0  0  0
    3.3997   -0.5032    0.6068 O   0  0  0  0  0  0  0  0  0  0  0  0
    2.8391    0.3183   -1.4748 O   0  0  0  0  0  0  0  0  0  0  0  0
    1.5182   -2.2628   -1.5195 O   0  0  0  0  0  0  0  0  0  0  0  0
    0.3983    2.0613   -1.0562 N   0  0  0  0  0  0  0  0  0  0  0  0
    0.8693   -1.8213    0.6931 N   0  0  0  0  0  0  0  0  0  0  0  0
    2.5643    2.9533   -0.2729 C   0  0  0  0  0  0  0  0  0  0  0  0
    3.4092    1.8250    0.3475 C   0  0  0  0  0  0  0  0  0  0  0  0
    3.2151   -1.8403    0.1308 C   0  0  2  0  0  0  0  0  0  0  0  0
    1.1114    2.7014   -0.1591 C   0  0  0  0  0  0  0  0  0  0  0  0
   -1.1903    2.6102    0.5883 C   0  0  0  0  0  0  0  0  0  0  0  0
   -0.9242    2.0009   -0.6416 C   0  0  0  0  0  0  0  0  0  0  0  0
    3.1757    0.4841   -0.3105 C   0  0  0  0  0  0  0  0  0  0  0  0
    1.7747   -2.0088   -0.3461 C   0  0  0  0  0  0  0  0  0  0  0  0
    3.5568   -2.8207    1.2431 C   0  0  0  0  0  0  0  0  0  0  0  0
   -0.5427   -1.8975    0.6320 C   0  0  0  0  0  0  0  0  0  0  0  0
   -2.4808    2.6320    1.1413 C   0  0  0  0  0  0  0  0  0  0  0  0
   -1.9892    1.3924   -1.3408 C   0  0  0  0  0  0  0  0  0  0  0  0
   -1.1542   -2.1972   -0.5740 C   0  0  0  0  0  0  0  0  0  0  0  0
   -2.5459   -2.2720   -0.6331 C   0  0  0  0  0  0  0  0  0  0  0  0
   -1.2828   -1.6704    1.7804 C   0  0  0  0  0  0  0  0  0  0  0  0
   -3.5168    2.0226    0.4290 C   0  0  0  0  0  0  0  0  0  0  0  0
   -3.2764    1.4104   -0.7961 C   0  0  0  0  0  0  0  0  0  0  0  0
   -3.3059   -2.0461    0.5145 C   0  0  0  0  0  0  0  0  0  0  0  0
   -2.6744   -1.7453    1.7212 C   0  0  0  0  0  0  0  0  0  0  0  0
   -3.2213   -2.5941   -1.9233 C   0  0  0  0  0  0  0  0  0  0  0  0
    2.8379    3.9051    0.1987 H   0  0  0  0  0  0  0  0  0  0  0  0
    2.8227    3.0551   -1.3347 H   0  0  0  0  0  0  0  0  0  0  0  0
    3.1719    1.7437    1.4153 H   0  0  0  0  0  0  0  0  0  0  0  0
    4.4741    2.0630    0.2518 H   0  0  0  0  0  0  0  0  0  0  0  0
    3.8907   -2.0177   -0.7156 H   0  0  0  0  0  0  0  0  0  0  0  0
    4.6283   -2.7707    1.4665 H   0  0  0  0  0  0  0  0  0  0  0  0
    3.0418   -2.5824    2.1795 H   0  0  0  0  0  0  0  0  0  0  0  0
    3.3089   -3.8484    0.9600 H   0  0  0  0  0  0  0  0  0  0  0  0
    1.2430   -1.5759    1.6067 H   0  0  0  0  0  0  0  0  0  0  0  0
   -2.6757    3.1074    2.0977 H   0  0  0  0  0  0  0  0  0  0  0  0
   -1.8124    0.9100   -2.2978 H   0  0  0  0  0  0  0  0  0  0  0  0
   -0.6262   -2.3857   -1.4972 H   0  0  0  0  0  0  0  0  0  0  0  0
   -0.8010   -1.4339    2.7249 H   0  0  0  0  0  0  0  0  0  0  0  0
   -4.5230    2.0266    0.8399 H   0  0  0  0  0  0  0  0  0  0  0  0
   -4.0942    0.9402   -1.3352 H   0  0  0  0  0  0  0  0  0  0  0  0
   -4.3907   -2.1013    0.4832 H   0  0  0  0  0  0  0  0  0  0  0  0
   -3.2662   -1.5679    2.6145 H   0  0  0  0  0  0  0  0  0  0  0  0
   -4.2845   -2.3323   -1.8982 H   0  0  0  0  0  0  0  0  0  0  0  0
   -3.1358   -3.6644   -2.1361 H   0  0  0  0  0  0  0  0  0  0  0  0
   -2.7707   -2.0300   -2.7469 H   0  0  0  0  0  0  0  0  0  0  0  0
  1 10  1  0  0  0  0
  1 11  1  0  0  0  0
  2  9  1  0  0  0  0
  2 13  1  0  0  0  0
  3 13  2  0  0  0  0
  4 14  2  0  0  0  0
  5 10  2  0  0  0  0
  5 12  1  0  0  0  0
  6 14  1  0  0  0  0
  6 16  1  0  0  0  0
  6 35  1  0  0  0  0
  7  8  1  0  0  0  0
  7 10  1  0  0  0  0
  7 27  1  0  0  0  0
  7 28  1  0  0  0  0
  8 13  1  0  0  0  0
  8 29  1  0  0  0  0
  8 30  1  0  0  0  0
  9 14  1  0  0  0  0
  9 15  1  0  0  0  0
  9 31  1  0  0  0  0
 11 12  1  0  0  0  0
 11 17  2  0  0  0  0
 12 18  2  0  0  0  0
 15 32  1  0  0  0  0
 15 33  1  0  0  0  0
 15 34  1  0  0  0  0
 16 19  1  0  0  0  0
 16 21  2  0  0  0  0
 17 22  1  0  0  0  0
 17 36  1  0  0  0  0
 18 23  1  0  0  0  0
 18 37  1  0  0  0  0
 19 20  2  0  0  0  0
 19 38  1  0  0  0  0
 20 24  1  0  0  0  0
 20 26  1  0  0  0  0
 21 25  1  0  0  0  0
 21 39  1  0  0  0  0
 22 23  2  0  0  0  0
 22 40  1  0  0  0  0
 23 41  1  0  0  0  0
 24 25  2  0  0  0  0
 24 42  1  0  0  0  0
 25 43  1  0  0  0  0
 26 44  1  0  0  0  0
 26 45  1  0  0  0  0
 26 46  1  0  0  0  0
M  END
> <PUBCHEM_COMPOUND_CID>
7846973

> <PUBCHEM_CONFORMER_RMSD>
1.2

> <PUBCHEM_CONFORMER_DIVERSEORDER>
1
76
204
265
136
113
36
255
3
62
135
10
231
138
211
57
91
238
18
252
224
81
115
127
100
51
243
253
118
185
83
21
123
249
259
164
179
175
161
42
93
216
196
77
86
242
245
225
23
156
47
94
48
96
214
235
58
170
154
194
111
129
165
250
53
15
56
232
29
223
4
119
11
260
217
43
257
207
177
78
87
163
219
247
74
97
188
84
264
157
171
226
105
33
152
6
190
52
120
106
32
229
183
137
187
153
37
146
263
230
71
239
180
35
244
160
174
258
147
89
173
61
103
166
95
140
218
22
201
192
67
251
131
16
31
206
189
65
125
198
241
59
210
24
199
142
178
150
254
126
66
215
233
240
227
181
79
222
141
197
92
90
98
169
9
155
237
41
8
203
5
69
182
40
38
54
101
112
7
228
82
50
200
128
34
122
39
121
234
102
104
107
151
2
184
75
133
46
64
116
110
114
27
30
70
172
88
162
208
63
186
26
117
28
19
221
85
14
168
124
205
108
25
220
55
212
109
13
73
144
246
256
145
134
167
132
158
44
202
130
143
12
17
213
80
195
159
262
20
60
149
148
72
139
236
176
45
49
261
193
191
209
68
99
248

> <PUBCHEM_MMFF94_PARTIAL_CHARGES>
34
1 -0.08
10 0.2
11 0.04
12 0.23
13 0.66
14 0.57
16 0.12
17 -0.15
18 -0.15
19 -0.15
2 -0.43
20 -0.14
21 -0.15
22 -0.15
23 -0.15
24 -0.15
25 -0.15
26 0.14
3 -0.57
35 0.37
36 0.15
37 0.15
38 0.15
39 0.15
4 -0.57
40 0.15
41 0.15
42 0.15
43 0.15
5 -0.57
6 -0.55
7 0.18
8 0.06
9 0.34

> <PUBCHEM_EFFECTIVE_ROTOR_COUNT>
8

> <PUBCHEM_PHARMACOPHORE_FEATURES>
7
1 3 acceptor
1 4 acceptor
1 5 acceptor
1 6 donor
5 1 5 10 11 12 rings
6 11 12 17 18 22 23 rings
6 16 19 20 21 24 25 rings

> <PUBCHEM_HEAVY_ATOM_COUNT>
26

> <PUBCHEM_ATOM_DEF_STEREO_COUNT>
1

> <PUBCHEM_ATOM_UDEF_STEREO_COUNT>
0

> <PUBCHEM_BOND_DEF_STEREO_COUNT>
0

> <PUBCHEM_BOND_UDEF_STEREO_COUNT>
0

> <PUBCHEM_ISOTOPIC_ATOM_COUNT>
0

> <PUBCHEM_COMPONENT_COUNT>
1

> <PUBCHEM_CACTVS_TAUTO_COUNT>
4

> <PUBCHEM_CONFORMER_ID>
0077BC3D00000001

> <PUBCHEM_MMFF94_ENERGY>
55.1297

> <PUBCHEM_FEATURE_SELFOVERLAP>
35.595

> <PUBCHEM_SHAPE_FINGERPRINT>
10119406 146 16898752386869242614
104564 63 18268133276107409012
1100329 8 18268434710023783161
11578080 2 17604731983253453891
12156800 1 16476912432224818512
12422481 6 18197467750480824785
12553582 1 17617646666508500033
12596599 1 17247801071134749177
12633257 1 18197219363393922450
12655364 131 16020019897283142353
13122387 1 17907294703868528552
13140716 1 18341049734861091290
14251757 17 17911552855311659479
17093844 170 17907873798673152453
17357779 13 18124316004084972725
17492 54 18127414677413770933
19930381 70 17545887031816458579
20737093 15 17760122836343566189
20764821 26 18410577271002068312
20905425 154 18338794498841213759
21236236 1 18340483375421113492
22113638 7 18195250142089450556
3027735 51 18195249910424902409
3052486 1 18342167840035346308
35225 105 18196078070023656695
392239 28 17970917648406371816
6287921 2 17322666835529713167
7471813 234 18193584231871561110

> <PUBCHEM_SHAPE_MULTIPOLES>
511.35
6.47
5.16
1.58
1.7
1.14
0
-1.78
-0.15
-0.14
0.59
-0.8
-0.57
-0.76

> <PUBCHEM_SHAPE_SELFOVERLAP>
1084.121

> <PUBCHEM_SHAPE_VOLUME>
286.6

> <PUBCHEM_COORDINATE_TYPE>
2
5
10

$$$$

