14239
  -OEChem-06241222422D

 26 25  0     0  0  0  0  0  0999 V2000
    8.9282   -1.0950    0.0000 S   0  0  0  0  0  0  0  0  0  0  0  0
    3.7321   -0.0950    0.0000 O   0  0  0  0  0  0  0  0  0  0  0  0
    4.5981    1.4050    0.0000 O   0  0  0  0  0  0  0  0  0  0  0  0
    7.1962   -0.0950    0.0000 N   0  0  0  0  0  0  0  0  0  0  0  0
    8.0622    0.4050    0.0000 N   0  0  0  0  0  0  0  0  0  0  0  0
    9.7942    0.4050    0.0000 N   0  0  0  0  0  0  0  0  0  0  0  0
    5.4641   -0.0950    0.0000 C   0  0  0  0  0  0  0  0  0  0  0  0
    6.3301    0.4050    0.0000 C   0  0  0  0  0  0  0  0  0  0  0  0
    4.5981    0.4050    0.0000 C   0  0  0  0  0  0  0  0  0  0  0  0
    2.8660    0.4050    0.0000 C   0  0  0  0  0  0  0  0  0  0  0  0
    6.3301    1.4050    0.0000 C   0  0  0  0  0  0  0  0  0  0  0  0
    2.0000   -0.0950    0.0000 C   0  0  0  0  0  0  0  0  0  0  0  0
    8.9282   -0.0950    0.0000 C   0  0  0  0  0  0  0  0  0  0  0  0
    5.8626   -0.5699    0.0000 H   0  0  0  0  0  0  0  0  0  0  0  0
    5.0656   -0.5699    0.0000 H   0  0  0  0  0  0  0  0  0  0  0  0
    3.2646    0.8799    0.0000 H   0  0  0  0  0  0  0  0  0  0  0  0
    2.4675    0.8799    0.0000 H   0  0  0  0  0  0  0  0  0  0  0  0
    6.9501    1.4050    0.0000 H   0  0  0  0  0  0  0  0  0  0  0  0
    6.3301    2.0250    0.0000 H   0  0  0  0  0  0  0  0  0  0  0  0
    5.7101    1.4050    0.0000 H   0  0  0  0  0  0  0  0  0  0  0  0
    1.6900    0.4419    0.0000 H   0  0  0  0  0  0  0  0  0  0  0  0
    1.4631   -0.4050    0.0000 H   0  0  0  0  0  0  0  0  0  0  0  0
    2.3100   -0.6319    0.0000 H   0  0  0  0  0  0  0  0  0  0  0  0
   10.3312    0.0950    0.0000 H   0  0  0  0  0  0  0  0  0  0  0  0
    9.7942    1.0250    0.0000 H   0  0  0  0  0  0  0  0  0  0  0  0
    8.3913   -1.4050    0.0000 H   0  0  0  0  0  0  0  0  0  0  0  0
  1 13  1  0  0  0  0
  1 26  1  0  0  0  0
  2  9  1  0  0  0  0
  2 10  1  0  0  0  0
  3  9  2  0  0  0  0
  4  5  1  0  0  0  0
  4  8  2  3  0  0  0
  5 13  2  3  0  0  0
  6 13  1  0  0  0  0
  6 24  1  0  0  0  0
  6 25  1  0  0  0  0
  7  8  1  0  0  0  0
  7  9  1  0  0  0  0
  7 14  1  0  0  0  0
  7 15  1  0  0  0  0
  8 11  1  0  0  0  0
 10 12  1  0  0  0  0
 10 16  1  0  0  0  0
 10 17  1  0  0  0  0
 11 18  1  0  0  0  0
 11 19  1  0  0  0  0
 11 20  1  0  0  0  0
 12 21  1  0  0  0  0
 12 22  1  0  0  0  0
 12 23  1  0  0  0  0
M  END
> <PUBCHEM_COMPOUND_CID>
14239

> <PUBCHEM_COMPOUND_CANONICALIZED>
1

> <PUBCHEM_CACTVS_COMPLEXITY>
238

> <PUBCHEM_CACTVS_HBOND_ACCEPTOR>
5

> <PUBCHEM_CACTVS_HBOND_DONOR>
2

> <PUBCHEM_CACTVS_ROTATABLE_BOND>
5

> <PUBCHEM_CACTVS_SUBSKEYS>
AAADccBjMABAAAAAAAAAAAAAAAAAAAAAAAAAAAAAAAAAAAAAAAAAHgQYAAAACAihgAIDCABABAQoAQCwKAAAAAAAAAAAAAEwAAAAABAAAAACAAAEAAAAAAAAAAAAAAAAAAAAAAAAAAAAAAAAAAAAAAAAAA==

> <PUBCHEM_IUPAC_OPENEYE_NAME>
ethyl 3-[[amino(sulfanyl)methylene]hydrazono]butanoate

> <PUBCHEM_IUPAC_CAS_NAME>
N'-[(4-ethoxy-4-oxobutan-2-ylidene)amino]carbamimidothioic acid

> <PUBCHEM_IUPAC_NAME>
N'-[(4-ethoxy-4-oxobutan-2-ylidene)amino]carbamimidothioic acid

> <PUBCHEM_IUPAC_SYSTEMATIC_NAME>
N'-[(4-ethoxy-4-oxidanylidene-butan-2-ylidene)amino]carbamimidothioic acid

> <PUBCHEM_IUPAC_TRADITIONAL_NAME>
3-[[amino(mercapto)methylene]hydrazono]butyric acid ethyl ester

> <PUBCHEM_IUPAC_INCHI>
InChI=1S/C7H13N3O2S/c1-3-12-6(11)4-5(2)9-10-7(8)13/h3-4H2,1-2H3,(H3,8,10,13)

> <PUBCHEM_IUPAC_INCHIKEY>
WQKFYGJPNATGJS-UHFFFAOYSA-N

> <PUBCHEM_XLOGP3_AA>
0.6

> <PUBCHEM_EXACT_MASS>
203.072848

> <PUBCHEM_MOLECULAR_FORMULA>
C7H13N3O2S

> <PUBCHEM_MOLECULAR_WEIGHT>
203.26202

> <PUBCHEM_OPENEYE_CAN_SMILES>
CCOC(=O)CC(=NN=C(N)S)C

> <PUBCHEM_OPENEYE_ISO_SMILES>
CCOC(=O)CC(=NN=C(N)S)C

> <PUBCHEM_CACTVS_TPSA>
78

> <PUBCHEM_MONOISOTOPIC_WEIGHT>
203.072848

> <PUBCHEM_TOTAL_CHARGE>
0

> <PUBCHEM_HEAVY_ATOM_COUNT>
13

> <PUBCHEM_ATOM_DEF_STEREO_COUNT>
0

> <PUBCHEM_ATOM_UDEF_STEREO_COUNT>
0

> <PUBCHEM_BOND_DEF_STEREO_COUNT>
0

> <PUBCHEM_BOND_UDEF_STEREO_COUNT>
2

> <PUBCHEM_ISOTOPIC_ATOM_COUNT>
0

> <PUBCHEM_COMPONENT_COUNT>
1

> <PUBCHEM_CACTVS_TAUTO_COUNT>
3

> <PUBCHEM_COORDINATE_TYPE>
1
5
255

> <PUBCHEM_BONDANNOTATIONS>
4  8  1
5  13  1

$$$$

