8237
  -OEChem-06261202413D

 62 63  0     0  0  0  0  0  0999 V2000
    2.5972   -3.3245    0.5248 O   0  0  0  0  0  0  0  0  0  0  0  0
    0.4471    0.8226    1.2708 O   0  0  0  0  0  0  0  0  0  0  0  0
    4.9534    0.8488   -0.2722 O   0  0  0  0  0  0  0  0  0  0  0  0
   -2.2661   -1.1036    2.2113 O   0  0  0  0  0  0  0  0  0  0  0  0
    0.5795   -1.8918   -1.5446 O   0  0  0  0  0  0  0  0  0  0  0  0
    3.0860    3.0332    1.5004 O   0  0  0  0  0  0  0  0  0  0  0  0
   -3.9402   -0.5025   -2.2289 O   0  0  0  0  0  0  0  0  0  0  0  0
   -5.2943   -1.2727    0.7543 O   0  0  0  0  0  0  0  0  0  0  0  0
    3.9915   -1.3343    0.0908 C   0  0  0  0  0  0  0  0  0  0  0  0
    2.6662   -1.9382    0.5092 C   0  0  0  0  0  0  0  0  0  0  0  0
    1.5880   -1.2123    0.8580 C   0  0  0  0  0  0  0  0  0  0  0  0
    3.9603    0.2044    0.0774 C   0  0  0  0  0  0  0  0  0  0  0  0
    2.7281    0.9438    0.4945 C   0  0  0  0  0  0  0  0  0  0  0  0
    0.2857   -1.8601    1.2662 C   0  0  0  0  0  0  0  0  0  0  0  0
    4.3557   -1.7833   -1.3374 C   0  0  0  0  0  0  0  0  0  0  0  0
    5.0999   -1.7470    1.0769 C   0  0  0  0  0  0  0  0  0  0  0  0
    1.6348    0.2468    0.8586 C   0  0  0  0  0  0  0  0  0  0  0  0
   -0.8354   -1.4988    0.3402 C   0  0  0  0  0  0  0  0  0  0  0  0
    2.7416    2.4193    0.4919 C   0  0  0  0  0  0  0  0  0  0  0  0
   -2.0752   -1.1325    0.8602 C   0  0  0  0  0  0  0  0  0  0  0  0
   -0.6351   -1.5317   -1.0382 C   0  0  0  0  0  0  0  0  0  0  0  0
    2.3176    3.0983   -0.7979 C   0  0  0  0  0  0  0  0  0  0  0  0
   -3.1191   -0.7976   -0.0022 C   0  0  0  0  0  0  0  0  0  0  0  0
   -1.6790   -1.1969   -1.9004 C   0  0  0  0  0  0  0  0  0  0  0  0
   -2.9211   -0.8297   -1.3826 C   0  0  0  0  0  0  0  0  0  0  0  0
    1.6964    4.4718   -0.5556 C   0  0  0  0  0  0  0  0  0  0  0  0
   -4.4182   -0.4135    0.5394 C   0  0  0  0  0  0  0  0  0  0  0  0
   -4.7107    1.0642    0.8491 C   0  0  0  0  0  0  0  0  0  0  0  0
   -1.4664   -1.2315   -3.3805 C   0  0  0  0  0  0  0  0  0  0  0  0
    1.2497    5.1191   -1.8563 C   0  0  0  0  0  0  0  0  0  0  0  0
   -6.1899    1.4278    0.7202 C   0  0  0  0  0  0  0  0  0  0  0  0
   -6.4280    2.9022    1.0028 C   0  0  0  0  0  0  0  0  0  0  0  0
    0.3525   -2.9548    1.2883 H   0  0  0  0  0  0  0  0  0  0  0  0
    0.0781   -1.5670    2.3033 H   0  0  0  0  0  0  0  0  0  0  0  0
    5.3001   -1.3360   -1.6695 H   0  0  0  0  0  0  0  0  0  0  0  0
    3.5852   -1.4769   -2.0552 H   0  0  0  0  0  0  0  0  0  0  0  0
    4.4722   -2.8696   -1.4138 H   0  0  0  0  0  0  0  0  0  0  0  0
    6.0622   -1.2942    0.8101 H   0  0  0  0  0  0  0  0  0  0  0  0
    5.2503   -2.8317    1.0993 H   0  0  0  0  0  0  0  0  0  0  0  0
    4.8624   -1.4200    2.0966 H   0  0  0  0  0  0  0  0  0  0  0  0
    1.5938    2.4593   -1.3173 H   0  0  0  0  0  0  0  0  0  0  0  0
    3.2060    3.1898   -1.4332 H   0  0  0  0  0  0  0  0  0  0  0  0
    3.4615   -3.6858    0.2713 H   0  0  0  0  0  0  0  0  0  0  0  0
    0.8372    4.3769    0.1192 H   0  0  0  0  0  0  0  0  0  0  0  0
    2.4193    5.1274   -0.0560 H   0  0  0  0  0  0  0  0  0  0  0  0
    0.5415    1.7893    1.2513 H   0  0  0  0  0  0  0  0  0  0  0  0
   -4.3605    1.2608    1.8688 H   0  0  0  0  0  0  0  0  0  0  0  0
   -4.1206    1.6836    0.1635 H   0  0  0  0  0  0  0  0  0  0  0  0
   -0.6871   -0.5184   -3.6707 H   0  0  0  0  0  0  0  0  0  0  0  0
   -2.3623   -0.9660   -3.9499 H   0  0  0  0  0  0  0  0  0  0  0  0
   -1.1796   -2.2386   -3.7024 H   0  0  0  0  0  0  0  0  0  0  0  0
    0.4967    4.5056   -2.3613 H   0  0  0  0  0  0  0  0  0  0  0  0
    2.0958    5.2551   -2.5374 H   0  0  0  0  0  0  0  0  0  0  0  0
    0.8103    6.1020   -1.6593 H   0  0  0  0  0  0  0  0  0  0  0  0
   -6.7853    0.8263    1.4170 H   0  0  0  0  0  0  0  0  0  0  0  0
   -6.5439    1.1859   -0.2889 H   0  0  0  0  0  0  0  0  0  0  0  0
   -3.1849   -0.8788    2.4270 H   0  0  0  0  0  0  0  0  0  0  0  0
    0.5932   -1.8416   -2.5122 H   0  0  0  0  0  0  0  0  0  0  0  0
   -4.7482   -0.2924   -1.7344 H   0  0  0  0  0  0  0  0  0  0  0  0
   -5.8750    3.5311    0.2978 H   0  0  0  0  0  0  0  0  0  0  0  0
   -7.4922    3.1396    0.9071 H   0  0  0  0  0  0  0  0  0  0  0  0
   -6.1115    3.1629    2.0177 H   0  0  0  0  0  0  0  0  0  0  0  0
  1 10  1  0  0  0  0
  1 43  1  0  0  0  0
  2 17  1  0  0  0  0
  2 46  1  0  0  0  0
  3 12  2  0  0  0  0
  4 20  1  0  0  0  0
  4 57  1  0  0  0  0
  5 21  1  0  0  0  0
  5 58  1  0  0  0  0
  6 19  2  0  0  0  0
  7 25  1  0  0  0  0
  7 59  1  0  0  0  0
  8 27  2  0  0  0  0
  9 10  1  0  0  0  0
  9 12  1  0  0  0  0
  9 15  1  0  0  0  0
  9 16  1  0  0  0  0
 10 11  2  0  0  0  0
 11 14  1  0  0  0  0
 11 17  1  0  0  0  0
 12 13  1  0  0  0  0
 13 17  2  0  0  0  0
 13 19  1  0  0  0  0
 14 18  1  0  0  0  0
 14 33  1  0  0  0  0
 14 34  1  0  0  0  0
 15 35  1  0  0  0  0
 15 36  1  0  0  0  0
 15 37  1  0  0  0  0
 16 38  1  0  0  0  0
 16 39  1  0  0  0  0
 16 40  1  0  0  0  0
 18 20  2  0  0  0  0
 18 21  1  0  0  0  0
 19 22  1  0  0  0  0
 20 23  1  0  0  0  0
 21 24  2  0  0  0  0
 22 26  1  0  0  0  0
 22 41  1  0  0  0  0
 22 42  1  0  0  0  0
 23 25  2  0  0  0  0
 23 27  1  0  0  0  0
 24 25  1  0  0  0  0
 24 29  1  0  0  0  0
 26 30  1  0  0  0  0
 26 44  1  0  0  0  0
 26 45  1  0  0  0  0
 27 28  1  0  0  0  0
 28 31  1  0  0  0  0
 28 47  1  0  0  0  0
 28 48  1  0  0  0  0
 29 49  1  0  0  0  0
 29 50  1  0  0  0  0
 29 51  1  0  0  0  0
 30 52  1  0  0  0  0
 30 53  1  0  0  0  0
 30 54  1  0  0  0  0
 31 32  1  0  0  0  0
 31 55  1  0  0  0  0
 31 56  1  0  0  0  0
 32 60  1  0  0  0  0
 32 61  1  0  0  0  0
 32 62  1  0  0  0  0
M  END
> <PUBCHEM_COMPOUND_CID>
8237

> <PUBCHEM_CONFORMER_RMSD>
1

> <PUBCHEM_CONFORMER_DIVERSEORDER>
11
55
104
86
58
62
100
73
76
78
106
101
20
119
50
99
117
31
16
105
120
25
67
96
5
14
95
85
15
4
102
51
60
75
2
109
56
18
79
90
114
70
64
123
110
13
82
36
10
54
1
40
94
77
29
118
43
84
115
9
32
81
111
27
72
59
83
80
121
49
91
112
65
92
53
57
6
89
23
122
124
48
47
108
17
66
35
103
28
69
74
46
3
30
88
98
39
52
61
42
71
33
24
44
87
116
12
7
113
97
8
19
68
22
26
93
38
63
21
37
41
34
107
45

> <PUBCHEM_MMFF94_PARTIAL_CHARGES>
31
1 -0.53
10 -0.06
11 -0.14
12 0.49
13 0.03
14 0.28
17 0.08
18 -0.14
19 0.49
2 -0.53
20 0.08
21 0.08
22 0.06
23 0.09
24 -0.14
25 0.08
27 0.42
28 0.06
29 0.14
3 -0.57
4 -0.53
43 0.45
46 0.45
5 -0.53
57 0.45
58 0.45
59 0.45
6 -0.57
7 -0.53
8 -0.57
9 0.2

> <PUBCHEM_EFFECTIVE_ROTOR_COUNT>
8.2

> <PUBCHEM_PHARMACOPHORE_FEATURES>
14
1 1 donor
1 13 anion
1 2 donor
1 3 acceptor
1 30 hydrophobe
1 32 hydrophobe
1 4 donor
1 5 donor
1 6 acceptor
1 7 donor
1 8 acceptor
3 9 15 16 hydrophobe
6 18 20 21 23 24 25 rings
6 9 10 11 12 13 17 rings

> <PUBCHEM_HEAVY_ATOM_COUNT>
32

> <PUBCHEM_ATOM_DEF_STEREO_COUNT>
0

> <PUBCHEM_ATOM_UDEF_STEREO_COUNT>
0

> <PUBCHEM_BOND_DEF_STEREO_COUNT>
0

> <PUBCHEM_BOND_UDEF_STEREO_COUNT>
0

> <PUBCHEM_ISOTOPIC_ATOM_COUNT>
0

> <PUBCHEM_COMPONENT_COUNT>
1

> <PUBCHEM_CACTVS_TAUTO_COUNT>
798

> <PUBCHEM_CONFORMER_ID>
0000202D0000000B

> <PUBCHEM_MMFF94_ENERGY>
89.3745

> <PUBCHEM_FEATURE_SELFOVERLAP>
71.041

> <PUBCHEM_SHAPE_FINGERPRINT>
10074138 170 15680870678013413362
10165383 225 17632284714101892626
10369192 42 17411044055599955084
10763959 59 18188482592533892241
11578080 2 17559089018523733794
11595378 159 14620527713178140583
12107698 1 18410013269251008481
12156800 1 17760899107619041956
12173636 292 17402327075458276120
12422481 6 18261107530303360485
12633257 1 17059503919836749617
12788726 201 17984999326099205066
13782708 43 17561364010576184970
14787075 74 12175323812804482023
15081414 286 18341898459480916812
151778 21 17912357628898310676
15238133 3 18340479066835588546
15475509 84 17553210212800782507
15849732 13 17822012055460763306
17818456 19 17531523282172093849
17980427 23 17605862256334016466
1813 80 18261388996943630142
18785283 64 18199183997378234834
20511986 3 17240777142354814858
21033648 29 17274553091630284205
21860390 5 18409718569568879020
22122407 14 18337099155623616033
238 59 17837244522253801006
340366 18 17967247606903349303
3493558 16 18189323744947430185
474 4 18124325899979714456
5081480 168 18410007732806406676
6086070 43 17915488123428574351
6287921 2 17841991092164570692
633830 44 18410299094697670339

> <PUBCHEM_SHAPE_MULTIPOLES>
611.59
11.64
4.68
2.1
12.8
8.07
1.63
2.41
-3.52
-3.59
1.27
1.25
-0.44
-1.48

> <PUBCHEM_SHAPE_SELFOVERLAP>
1297.141

> <PUBCHEM_SHAPE_VOLUME>
340.8

> <PUBCHEM_COORDINATE_TYPE>
2
5
10

$$$$

