11494
  -OEChem-06261205443D

 23 23  0     0  0  0  0  0  0999 V2000
    3.0593   -1.1174   -0.0007 O   0  0  0  0  0  0  0  0  0  0  0  0
   -3.2297    1.0448   -0.0029 O   0  0  0  0  0  0  0  0  0  0  0  0
   -1.7321   -0.7760    0.0007 N   0  0  0  0  0  0  0  0  0  0  0  0
   -0.4749   -0.1706    0.0011 C   0  0  0  0  0  0  0  0  0  0  0  0
    0.6778   -0.9561    0.0006 C   0  0  0  0  0  0  0  0  0  0  0  0
    1.9343   -0.3507    0.0000 C   0  0  0  0  0  0  0  0  0  0  0  0
   -0.3709    1.2204    0.0012 C   0  0  0  0  0  0  0  0  0  0  0  0
    2.0383    1.0402    0.0000 C   0  0  0  0  0  0  0  0  0  0  0  0
    0.8857    1.8259    0.0008 C   0  0  0  0  0  0  0  0  0  0  0  0
   -2.9897   -0.1583    0.0003 C   0  0  0  0  0  0  0  0  0  0  0  0
   -4.1090   -1.1690   -0.0001 C   0  0  0  0  0  0  0  0  0  0  0  0
    4.3110   -0.4331   -0.0013 C   0  0  0  0  0  0  0  0  0  0  0  0
    0.6054   -2.0413    0.0004 H   0  0  0  0  0  0  0  0  0  0  0  0
   -1.2164    1.8941    0.0020 H   0  0  0  0  0  0  0  0  0  0  0  0
    2.9816    1.5755   -0.0003 H   0  0  0  0  0  0  0  0  0  0  0  0
   -1.7238   -1.7940    0.0008 H   0  0  0  0  0  0  0  0  0  0  0  0
    0.9669    2.9092    0.0010 H   0  0  0  0  0  0  0  0  0  0  0  0
   -4.0564   -1.7778   -0.9070 H   0  0  0  0  0  0  0  0  0  0  0  0
   -5.0735   -0.6543    0.0274 H   0  0  0  0  0  0  0  0  0  0  0  0
   -4.0268   -1.8144    0.8790 H   0  0  0  0  0  0  0  0  0  0  0  0
    4.4447    0.1624    0.9082 H   0  0  0  0  0  0  0  0  0  0  0  0
    4.4436    0.1626   -0.9108 H   0  0  0  0  0  0  0  0  0  0  0  0
    5.0965   -1.1960   -0.0018 H   0  0  0  0  0  0  0  0  0  0  0  0
  1  6  1  0  0  0  0
  1 12  1  0  0  0  0
  2 10  2  0  0  0  0
  3  4  1  0  0  0  0
  3 10  1  0  0  0  0
  3 16  1  0  0  0  0
  4  5  2  0  0  0  0
  4  7  1  0  0  0  0
  5  6  1  0  0  0  0
  5 13  1  0  0  0  0
  6  8  2  0  0  0  0
  7  9  2  0  0  0  0
  7 14  1  0  0  0  0
  8  9  1  0  0  0  0
  8 15  1  0  0  0  0
  9 17  1  0  0  0  0
 10 11  1  0  0  0  0
 11 18  1  0  0  0  0
 11 19  1  0  0  0  0
 11 20  1  0  0  0  0
 12 21  1  0  0  0  0
 12 22  1  0  0  0  0
 12 23  1  0  0  0  0
M  END
> <PUBCHEM_COMPOUND_CID>
11494

> <PUBCHEM_CONFORMER_RMSD>
0.6

> <PUBCHEM_CONFORMER_DIVERSEORDER>
1
7
2
8
4
5
3
6

> <PUBCHEM_MMFF94_PARTIAL_CHARGES>
17
1 -0.36
10 0.57
11 0.06
12 0.28
13 0.15
14 0.15
15 0.15
16 0.37
17 0.15
2 -0.57
3 -0.55
4 0.12
5 -0.15
6 0.08
7 -0.15
8 -0.15
9 -0.15

> <PUBCHEM_EFFECTIVE_ROTOR_COUNT>
3

> <PUBCHEM_PHARMACOPHORE_FEATURES>
4
1 1 acceptor
1 2 acceptor
1 3 donor
6 4 5 6 7 8 9 rings

> <PUBCHEM_HEAVY_ATOM_COUNT>
12

> <PUBCHEM_ATOM_DEF_STEREO_COUNT>
0

> <PUBCHEM_ATOM_UDEF_STEREO_COUNT>
0

> <PUBCHEM_BOND_DEF_STEREO_COUNT>
0

> <PUBCHEM_BOND_UDEF_STEREO_COUNT>
0

> <PUBCHEM_ISOTOPIC_ATOM_COUNT>
0

> <PUBCHEM_COMPONENT_COUNT>
1

> <PUBCHEM_CACTVS_TAUTO_COUNT>
2

> <PUBCHEM_CONFORMER_ID>
00002CE600000001

> <PUBCHEM_MMFF94_ENERGY>
41.6713

> <PUBCHEM_FEATURE_SELFOVERLAP>
20.297

> <PUBCHEM_SHAPE_FINGERPRINT>
10130415 120 18342740723614789232
10219947 1 18259983777605787750
11471102 20 18411986827560131349
11543360 7 15841258268833666646
11806522 49 18410857620549582654
12032990 46 18409444808401008446
124424 183 18272655666337869327
12932764 1 17531529759320333781
13690532 89 18410293609723583850
14144814 61 18409448081271453211
14252887 29 18113891680766815198
14325111 11 18410575054951898113
15536298 74 18261393300199913800
16945 1 18410574023890695744
18186145 218 17632582634407451045
18522853 276 18334012791903027249
200 152 18113628863507463503
20201158 50 18413107277169513867
20645477 70 18410296878689730991
20871998 22 18188762967872576166
21501925 9 18409738330639496306
221490 88 18125998265660914779
23402539 116 18410019870447138702
23402655 69 18410019844919947757
23463225 33 18411136961085750846
23532345 42 18410022022236134752
2748010 2 18195805167933588846
7364860 26 18263082107010570320
8809292 202 18201715103231596243

> <PUBCHEM_SHAPE_MULTIPOLES>
230.23
6.88
1.54
0.59
1.57
0.49
0
-2.45
0
-0.11
0
-0.01
0.01
0

> <PUBCHEM_SHAPE_SELFOVERLAP>
471.72

> <PUBCHEM_SHAPE_VOLUME>
133.1

> <PUBCHEM_COORDINATE_TYPE>
2
5
10

$$$$

