11320
  -OEChem-06261205323D

 44 47  0     1  0  0  0  0  0999 V2000
    0.1210    0.2088   -2.7533 O   0  0  0  0  0  0  0  0  0  0  0  0
   -2.3563    0.6086   -1.3774 N   0  0  1  0  0  0  0  0  0  0  0  0
    3.3406   -2.0277    0.2285 N   0  0  0  0  0  0  0  0  0  0  0  0
   -2.5319    0.6811    1.2148 C   0  0  2  0  0  0  0  0  0  0  0  0
   -1.2133   -0.1262   -0.7731 C   0  0  2  0  0  0  0  0  0  0  0  0
   -1.2489   -0.0456    0.7690 C   0  0  0  0  0  0  0  0  0  0  0  0
   -3.7732   -0.0057    0.5995 C   0  0  1  0  0  0  0  0  0  0  0  0
   -2.4579    2.1006    0.6258 C   0  0  0  0  0  0  0  0  0  0  0  0
   -3.6073   -0.0602   -0.9383 C   0  0  0  0  0  0  0  0  0  0  0  0
   -2.3913    2.0110   -0.9062 C   0  0  0  0  0  0  0  0  0  0  0  0
    0.1342    0.3342   -1.3349 C   0  0  1  0  0  0  0  0  0  0  0  0
   -4.0319   -1.3613    1.1852 C   0  0  0  0  0  0  0  0  0  0  0  0
    1.2801   -0.4667   -0.7700 C   0  0  0  0  0  0  0  0  0  0  0  0
    2.3251    0.1373   -0.0698 C   0  0  0  0  0  0  0  0  0  0  0  0
   -5.1456   -1.6897    1.8488 C   0  0  0  0  0  0  0  0  0  0  0  0
    1.2561   -1.8337   -0.9739 C   0  0  0  0  0  0  0  0  0  0  0  0
    3.3529   -0.6951    0.4208 C   0  0  0  0  0  0  0  0  0  0  0  0
    2.3701    1.5246    0.1493 C   0  0  0  0  0  0  0  0  0  0  0  0
    2.3056   -2.5656   -0.4565 C   0  0  0  0  0  0  0  0  0  0  0  0
    4.3993   -0.1004    1.1205 C   0  0  0  0  0  0  0  0  0  0  0  0
    3.4285    2.0926    0.8525 C   0  0  0  0  0  0  0  0  0  0  0  0
    4.4443    1.2788    1.3385 C   0  0  0  0  0  0  0  0  0  0  0  0
   -2.5938    0.7232    2.3080 H   0  0  0  0  0  0  0  0  0  0  0  0
   -1.3563   -1.1759   -1.0634 H   0  0  0  0  0  0  0  0  0  0  0  0
   -0.3913    0.5042    1.1737 H   0  0  0  0  0  0  0  0  0  0  0  0
   -1.2055   -1.0526    1.1992 H   0  0  0  0  0  0  0  0  0  0  0  0
   -4.6405    0.6364    0.8130 H   0  0  0  0  0  0  0  0  0  0  0  0
   -1.5721    2.6216    1.0088 H   0  0  0  0  0  0  0  0  0  0  0  0
   -3.3341    2.6850    0.9305 H   0  0  0  0  0  0  0  0  0  0  0  0
   -3.6254   -1.0900   -1.3188 H   0  0  0  0  0  0  0  0  0  0  0  0
   -4.4641    0.4325   -1.4169 H   0  0  0  0  0  0  0  0  0  0  0  0
   -3.2651    2.5150   -1.3398 H   0  0  0  0  0  0  0  0  0  0  0  0
   -1.5338    2.5778   -1.2845 H   0  0  0  0  0  0  0  0  0  0  0  0
    0.2410    1.3989   -1.1565 H   0  0  0  0  0  0  0  0  0  0  0  0
   -3.2777   -2.1317    1.0469 H   0  0  0  0  0  0  0  0  0  0  0  0
   -0.6532    0.6950   -3.0851 H   0  0  0  0  0  0  0  0  0  0  0  0
   -5.2757   -2.6928    2.2403 H   0  0  0  0  0  0  0  0  0  0  0  0
   -5.9418   -0.9725    2.0139 H   0  0  0  0  0  0  0  0  0  0  0  0
    0.4725   -2.3364   -1.5284 H   0  0  0  0  0  0  0  0  0  0  0  0
    1.6170    2.2227   -0.1933 H   0  0  0  0  0  0  0  0  0  0  0  0
    2.3499   -3.6421   -0.5854 H   0  0  0  0  0  0  0  0  0  0  0  0
    5.2073   -0.7161    1.5116 H   0  0  0  0  0  0  0  0  0  0  0  0
    3.4604    3.1647    1.0215 H   0  0  0  0  0  0  0  0  0  0  0  0
    5.2738    1.7135    1.8885 H   0  0  0  0  0  0  0  0  0  0  0  0
  1 11  1  0  0  0  0
  1 36  1  0  0  0  0
  2  5  1  0  0  0  0
  2  9  1  0  0  0  0
  2 10  1  0  0  0  0
  3 17  1  0  0  0  0
  3 19  2  0  0  0  0
  4  6  1  0  0  0  0
  4  7  1  0  0  0  0
  4  8  1  0  0  0  0
  4 23  1  0  0  0  0
  5  6  1  0  0  0  0
  5 11  1  0  0  0  0
  5 24  1  0  0  0  0
  6 25  1  0  0  0  0
  6 26  1  0  0  0  0
  7  9  1  0  0  0  0
  7 12  1  0  0  0  0
  7 27  1  0  0  0  0
  8 10  1  0  0  0  0
  8 28  1  0  0  0  0
  8 29  1  0  0  0  0
  9 30  1  0  0  0  0
  9 31  1  0  0  0  0
 10 32  1  0  0  0  0
 10 33  1  0  0  0  0
 11 13  1  0  0  0  0
 11 34  1  0  0  0  0
 12 15  2  0  0  0  0
 12 35  1  0  0  0  0
 13 14  1  0  0  0  0
 13 16  2  0  0  0  0
 14 17  1  0  0  0  0
 14 18  2  0  0  0  0
 15 37  1  0  0  0  0
 15 38  1  0  0  0  0
 16 19  1  0  0  0  0
 16 39  1  0  0  0  0
 17 20  2  0  0  0  0
 18 21  1  0  0  0  0
 18 40  1  0  0  0  0
 19 41  1  0  0  0  0
 20 22  1  0  0  0  0
 20 42  1  0  0  0  0
 21 22  2  0  0  0  0
 21 43  1  0  0  0  0
 22 44  1  0  0  0  0
M  END
> <PUBCHEM_COMPOUND_CID>
11320

> <PUBCHEM_CONFORMER_RMSD>
0.6

> <PUBCHEM_CONFORMER_DIVERSEORDER>
1
12
6
8
15
13
9
11
2
7
14
10
5
3
4

> <PUBCHEM_MMFF94_PARTIAL_CHARGES>
28
1 -0.68
10 0.27
11 0.42
12 -0.29
13 -0.14
15 -0.3
16 -0.15
17 0.31
18 -0.15
19 0.16
2 -0.81
20 -0.15
21 -0.15
22 -0.15
3 -0.62
35 0.15
36 0.4
37 0.15
38 0.15
39 0.15
40 0.15
41 0.15
42 0.15
43 0.15
44 0.15
5 0.27
7 0.14
9 0.27

> <PUBCHEM_EFFECTIVE_ROTOR_COUNT>
4.2

> <PUBCHEM_PHARMACOPHORE_FEATURES>
8
1 1 acceptor
1 1 donor
1 15 hydrophobe
1 2 cation
1 3 acceptor
6 14 17 18 20 21 22 rings
6 3 13 14 16 17 19 rings
8 2 4 5 6 7 8 9 10 rings

> <PUBCHEM_HEAVY_ATOM_COUNT>
22

> <PUBCHEM_ATOM_DEF_STEREO_COUNT>
1

> <PUBCHEM_ATOM_UDEF_STEREO_COUNT>
3

> <PUBCHEM_BOND_DEF_STEREO_COUNT>
0

> <PUBCHEM_BOND_UDEF_STEREO_COUNT>
0

> <PUBCHEM_ISOTOPIC_ATOM_COUNT>
0

> <PUBCHEM_COMPONENT_COUNT>
1

> <PUBCHEM_CACTVS_TAUTO_COUNT>
1

> <PUBCHEM_CONFORMER_ID>
00002C3800000001

> <PUBCHEM_MMFF94_ENERGY>
73.3195

> <PUBCHEM_FEATURE_SELFOVERLAP>
40.626

> <PUBCHEM_SHAPE_FINGERPRINT>
10366900 7 18341321219653908272
10498660 4 13840259321166235403
11370993 70 18411428322877087307
11640471 11 17240778293216301700
12173636 292 5978101307087807973
12236239 1 17240496796427060228
12346177 29 16773802528008521493
12363563 72 16343983593919397581
12403814 3 17967255295548904057
12633257 1 18129107882254848376
12892183 10 18408886252135866536
13083527 12 17630602323940305725
13224815 77 16877665677290778641
13533116 47 18339076124822553899
13544653 18 18341610366012109947
13583140 156 18335426810837217325
14178342 30 17774719878627537363
14223421 5 18409725196692808505
14289901 80 18187093874708827787
14341114 328 17604143731932709539
14787075 74 17680730128207638375
15163728 17 14419281815809675618
15188451 53 17417822686196926267
16752209 62 15051738594533111057
17349148 13 15410896258216392539
17492 89 18041847336455335927
1813 80 17203035302003903623
18186145 218 17748829618330694140
19862831 5 11455889165457741952
20626108 58 16558747854599127311
20681677 76 18336835298096318149
20715895 44 17100867822437128305
21065199 12 18410572920057662233
21424621 283 17772207550989542941
21524375 3 17677341506849363668
21756936 100 17679024799322899800
21864079 5 17022897999171750144
22854114 111 18186806889463110728
22854114 59 18408609149541228160
23419403 2 17199970859934103669
23557571 272 18060418006596936961
23559900 14 18201713011212848783
251288 83 17846214419548445906
2637199 183 16443336538626707104
2838139 119 4894116003572764442
3286 77 18342454889346759634
339767 52 12823022997672350792
3797600 57 17531240600272610474
38570 142 17752474366539611216
392239 28 18261957327873719723
469060 322 18046650918078165637
474 4 18187378592807840176
49207404 50 18408602552413484898
5104073 3 18337672030650099593
633830 44 5256397293062586906
7097593 13 17899410080258492015
7808743 9 14490186103116102483
8988823 20 18334850577246229771

> <PUBCHEM_SHAPE_MULTIPOLES>
436.92
9.35
2.31
1.75
1.67
0.26
-0.49
0.9
5.56
-0.89
0.24
0.97
0.06
1.72

> <PUBCHEM_SHAPE_SELFOVERLAP>
957.71

> <PUBCHEM_SHAPE_VOLUME>
231.4

> <PUBCHEM_COORDINATE_TYPE>
2
5
10

$$$$

