11780
  -OEChem-06261206063D

 26 27  0     1  0  0  0  0  0999 V2000
    5.2325   -0.3598    0.2148 Br  0  0  0  0  0  0  0  0  0  0  0  0
   -1.2206    2.5512    0.0256 O   0  0  0  0  0  0  0  0  0  0  0  0
   -0.8333    0.2086   -0.1563 N   0  0  0  0  0  0  0  0  0  0  0  0
   -1.7193   -0.8793   -0.0852 N   0  0  1  0  0  0  0  0  0  0  0  0
   -2.9708   -0.3629    0.2367 C   0  0  0  0  0  0  0  0  0  0  0  0
    0.5748    0.0767   -0.0701 C   0  0  0  0  0  0  0  0  0  0  0  0
   -1.5736    1.3832    0.0117 C   0  0  0  0  0  0  0  0  0  0  0  0
   -2.9724    0.9748    0.2978 C   0  0  0  0  0  0  0  0  0  0  0  0
   -1.5815   -1.9560   -1.0604 C   0  0  0  0  0  0  0  0  0  0  0  0
   -4.1619   -1.2367    0.4250 C   0  0  0  0  0  0  0  0  0  0  0  0
    1.4050    1.1477   -0.4146 C   0  0  0  0  0  0  0  0  0  0  0  0
    1.1446   -1.1258    0.3600 C   0  0  0  0  0  0  0  0  0  0  0  0
    2.7913    1.0179   -0.3299 C   0  0  0  0  0  0  0  0  0  0  0  0
    2.5309   -1.2558    0.4449 C   0  0  0  0  0  0  0  0  0  0  0  0
    3.3543   -0.1839    0.1000 C   0  0  0  0  0  0  0  0  0  0  0  0
   -3.7888    1.6444    0.5037 H   0  0  0  0  0  0  0  0  0  0  0  0
   -0.5459   -2.1694   -1.3351 H   0  0  0  0  0  0  0  0  0  0  0  0
   -2.1112   -1.7017   -1.9860 H   0  0  0  0  0  0  0  0  0  0  0  0
   -2.0115   -2.8809   -0.6615 H   0  0  0  0  0  0  0  0  0  0  0  0
   -3.9705   -1.9785    1.2070 H   0  0  0  0  0  0  0  0  0  0  0  0
   -4.4096   -1.7640   -0.5016 H   0  0  0  0  0  0  0  0  0  0  0  0
   -5.0418   -0.6572    0.7240 H   0  0  0  0  0  0  0  0  0  0  0  0
    1.0070    2.0889   -0.7799 H   0  0  0  0  0  0  0  0  0  0  0  0
    0.5392   -1.9708    0.6750 H   0  0  0  0  0  0  0  0  0  0  0  0
    3.4193    1.8603   -0.6082 H   0  0  0  0  0  0  0  0  0  0  0  0
    2.9537   -2.1959    0.7896 H   0  0  0  0  0  0  0  0  0  0  0  0
  1 15  1  0  0  0  0
  2  7  2  0  0  0  0
  3  4  1  0  0  0  0
  3  6  1  0  0  0  0
  3  7  1  0  0  0  0
  4  5  1  0  0  0  0
  4  9  1  0  0  0  0
  5  8  2  0  0  0  0
  5 10  1  0  0  0  0
  6 11  2  0  0  0  0
  6 12  1  0  0  0  0
  7  8  1  0  0  0  0
  8 16  1  0  0  0  0
  9 17  1  0  0  0  0
  9 18  1  0  0  0  0
  9 19  1  0  0  0  0
 10 20  1  0  0  0  0
 10 21  1  0  0  0  0
 10 22  1  0  0  0  0
 11 13  1  0  0  0  0
 11 23  1  0  0  0  0
 12 14  2  0  0  0  0
 12 24  1  0  0  0  0
 13 15  2  0  0  0  0
 13 25  1  0  0  0  0
 14 15  1  0  0  0  0
 14 26  1  0  0  0  0
M  END
> <PUBCHEM_COMPOUND_CID>
11780

> <PUBCHEM_CONFORMER_RMSD>
0.4

> <PUBCHEM_CONFORMER_DIVERSEORDER>
1
3
2
4
5

> <PUBCHEM_MMFF94_PARTIAL_CHARGES>
20
1 -0.11
10 0.14
11 -0.15
12 -0.15
13 -0.15
14 -0.15
15 0.11
16 0.15
2 -0.57
23 0.15
24 0.15
25 0.15
26 0.15
3 -0.16
4 -0.49
5 -0.04
6 0.12
7 0.62
8 -0.14
9 0.37

> <PUBCHEM_EFFECTIVE_ROTOR_COUNT>
1

> <PUBCHEM_PHARMACOPHORE_FEATURES>
4
1 1 hydrophobe
1 2 acceptor
5 3 4 5 7 8 rings
6 6 11 12 13 14 15 rings

> <PUBCHEM_HEAVY_ATOM_COUNT>
15

> <PUBCHEM_ATOM_DEF_STEREO_COUNT>
0

> <PUBCHEM_ATOM_UDEF_STEREO_COUNT>
0

> <PUBCHEM_BOND_DEF_STEREO_COUNT>
0

> <PUBCHEM_BOND_UDEF_STEREO_COUNT>
0

> <PUBCHEM_ISOTOPIC_ATOM_COUNT>
0

> <PUBCHEM_COMPONENT_COUNT>
1

> <PUBCHEM_CACTVS_TAUTO_COUNT>
1

> <PUBCHEM_CONFORMER_ID>
00002E0400000001

> <PUBCHEM_MMFF94_ENERGY>
55.0538

> <PUBCHEM_FEATURE_SELFOVERLAP>
20.297

> <PUBCHEM_SHAPE_FINGERPRINT>
11132069 177 18260272927720626922
11806522 49 18272651242753643594
12251169 10 18334294253641342982
12932764 1 17749402467862011706
13221675 6 18411699893885832582
13288520 33 18411697699389549006
13581323 91 18335138695756638422
14144814 61 18410575123470791490
15196674 1 18412824672774614376
15375462 189 18411702049769504883
15375462 478 18413388734981913455
15442244 35 18124880315928122826
15536298 74 18336546028307885520
15669948 3 18261396615529492686
15775835 57 18408036329557807968
16945 1 18335991921064112964
17802600 8 18410298003701929104
17804303 29 18334856130243356388
17862501 102 18272656753339063954
18522853 276 18412265038741531104
19050596 39 18342172276024237672
19422 9 18342450448023261571
200 152 18342464729095560407
20510252 161 18113897216568041073
20559304 39 18412822473925341260
20871998 184 18261110802994385791
21267235 1 18340759377659949170
21339142 126 18408328774023320007
22445834 79 18341897419491994242
2297311 6 18188196672434867916
23402539 116 18187091641605266207
23463225 33 18412542111049585831
23557571 272 18040146327842771644
23559900 14 18410863144231278152
26918003 58 17917992754781302059
2748010 2 17976254960839923965
3312278 4 18343021116301945753
34934 24 18129669736643604921
465052 167 18194107526977526651
5104073 3 18411699898233580832
7364860 26 18264205820995291520
8809292 202 18059570235486692698
90525 40 18334579078708654919
9709674 26 18411693305322033258

> <PUBCHEM_SHAPE_MULTIPOLES>
298.8
8.03
1.92
0.76
5.16
0.46
-0.07
-1.81
1.15
-1.12
-0.19
-0.06
-0.18
-0.41

> <PUBCHEM_SHAPE_SELFOVERLAP>
621.203

> <PUBCHEM_SHAPE_VOLUME>
175.8

> <PUBCHEM_COORDINATE_TYPE>
2
5
10

$$$$

