4009
  -OEChem-06251223493D

 66 68  0     1  0  0  0  0  0999 V2000
    4.2754    0.8563   -0.5881 O   0  0  0  0  0  0  0  0  0  0  0  0
    2.7688    2.2633    0.5753 O   0  0  0  0  0  0  0  0  0  0  0  0
    8.4858    0.5393   -0.1868 O   0  0  0  0  0  0  0  0  0  0  0  0
    7.2183    1.9730    1.1886 O   0  0  0  0  0  0  0  0  0  0  0  0
    9.2930   -1.6115   -0.3150 O   0  0  0  0  0  0  0  0  0  0  0  0
   -6.8946   -0.9351    0.5743 C   0  0  0  0  0  0  0  0  0  0  0  0
   -8.3645   -0.6964    0.1380 C   0  0  0  0  0  0  0  0  0  0  0  0
   -5.9896    0.2546    0.1926 C   0  0  0  0  0  0  0  0  0  0  0  0
   -8.8456    0.7014    0.4907 C   0  0  0  0  0  0  0  0  0  0  0  0
   -6.4988    1.4532   -0.1851 C   0  0  0  0  0  0  0  0  0  0  0  0
   -7.9834    1.7458   -0.2041 C   0  0  0  0  0  0  0  0  0  0  0  0
   -4.4992    0.0076    0.2764 C   0  0  0  0  0  0  0  0  0  0  0  0
   -6.8488   -1.1468    2.1038 C   0  0  0  0  0  0  0  0  0  0  0  0
   -6.4319   -2.2377   -0.1145 C   0  0  0  0  0  0  0  0  0  0  0  0
   -3.9613   -0.5416   -1.0378 C   0  0  0  0  0  0  0  0  0  0  0  0
   -5.6696    2.6237   -0.6523 C   0  0  0  0  0  0  0  0  0  0  0  0
   -2.4882   -0.8686   -0.9351 C   0  0  0  0  0  0  0  0  0  0  0  0
   -1.4977   -0.0192   -1.2707 C   0  0  0  0  0  0  0  0  0  0  0  0
    4.8475    0.1009    0.4829 C   0  0  1  0  0  0  0  0  0  0  0  0
   -0.0185   -0.2839   -1.2280 C   0  0  0  0  0  0  0  0  0  0  0  0
    0.5867    0.1786    0.0972 C   0  0  0  0  0  0  0  0  0  0  0  0
    2.0780    0.0189    0.1155 C   0  0  0  0  0  0  0  0  0  0  0  0
    4.1601   -1.2646    0.5538 C   0  0  0  0  0  0  0  0  0  0  0  0
   -2.1681   -2.2588   -0.4531 C   0  0  0  0  0  0  0  0  0  0  0  0
    2.8998    1.1957   -0.3594 C   0  0  2  0  0  0  0  0  0  0  0  0
    2.6693   -1.1196    0.5144 C   0  0  0  0  0  0  0  0  0  0  0  0
    6.3105   -0.0463    0.2255 C   0  0  0  0  0  0  0  0  0  0  0  0
    7.2005    1.1245    0.0500 C   0  0  2  0  0  0  0  0  0  0  0  0
    6.9866   -1.1860    0.1049 C   0  0  0  0  0  0  0  0  0  0  0  0
    8.3797   -0.8207   -0.1538 C   0  0  0  0  0  0  0  0  0  0  0  0
   -8.4617   -0.8344   -0.9480 H   0  0  0  0  0  0  0  0  0  0  0  0
   -9.0278   -1.4380    0.6009 H   0  0  0  0  0  0  0  0  0  0  0  0
   -9.8909    0.8265    0.1850 H   0  0  0  0  0  0  0  0  0  0  0  0
   -8.8189    0.8537    1.5757 H   0  0  0  0  0  0  0  0  0  0  0  0
   -8.3008    1.8317   -1.2515 H   0  0  0  0  0  0  0  0  0  0  0  0
   -8.1753    2.7179    0.2666 H   0  0  0  0  0  0  0  0  0  0  0  0
   -3.9641    0.9229    0.5577 H   0  0  0  0  0  0  0  0  0  0  0  0
   -4.2791   -0.6834    1.0980 H   0  0  0  0  0  0  0  0  0  0  0  0
   -7.0823   -0.2264    2.6501 H   0  0  0  0  0  0  0  0  0  0  0  0
   -7.5688   -1.9115    2.4175 H   0  0  0  0  0  0  0  0  0  0  0  0
   -5.8623   -1.4826    2.4412 H   0  0  0  0  0  0  0  0  0  0  0  0
   -5.4424   -2.5660    0.2181 H   0  0  0  0  0  0  0  0  0  0  0  0
   -7.1175   -3.0580    0.1347 H   0  0  0  0  0  0  0  0  0  0  0  0
   -6.4454   -2.1467   -1.2058 H   0  0  0  0  0  0  0  0  0  0  0  0
   -4.0987    0.2131   -1.8244 H   0  0  0  0  0  0  0  0  0  0  0  0
   -4.4767   -1.4249   -1.4135 H   0  0  0  0  0  0  0  0  0  0  0  0
   -5.7116    3.4301    0.0872 H   0  0  0  0  0  0  0  0  0  0  0  0
   -4.6192    2.3868   -0.8319 H   0  0  0  0  0  0  0  0  0  0  0  0
   -6.0652    3.0069   -1.5996 H   0  0  0  0  0  0  0  0  0  0  0  0
    4.7129    0.6458    1.4266 H   0  0  0  0  0  0  0  0  0  0  0  0
   -1.7771    0.9774   -1.6091 H   0  0  0  0  0  0  0  0  0  0  0  0
    0.4393    0.2658   -2.0610 H   0  0  0  0  0  0  0  0  0  0  0  0
    0.2115   -1.3374   -1.4212 H   0  0  0  0  0  0  0  0  0  0  0  0
    0.1460   -0.3980    0.9219 H   0  0  0  0  0  0  0  0  0  0  0  0
    0.3203    1.2242    0.2975 H   0  0  0  0  0  0  0  0  0  0  0  0
    4.4211   -1.9001   -0.3020 H   0  0  0  0  0  0  0  0  0  0  0  0
    4.4504   -1.7898    1.4714 H   0  0  0  0  0  0  0  0  0  0  0  0
    2.5138    1.5548   -1.3186 H   0  0  0  0  0  0  0  0  0  0  0  0
   -1.1247   -2.4100   -0.1679 H   0  0  0  0  0  0  0  0  0  0  0  0
   -2.7613   -2.4931    0.4377 H   0  0  0  0  0  0  0  0  0  0  0  0
   -2.4198   -2.9901   -1.2282 H   0  0  0  0  0  0  0  0  0  0  0  0
    2.0711   -1.9716    0.8239 H   0  0  0  0  0  0  0  0  0  0  0  0
    6.9149    1.7092   -0.8316 H   0  0  0  0  0  0  0  0  0  0  0  0
    6.6450   -2.2037    0.1772 H   0  0  0  0  0  0  0  0  0  0  0  0
    2.6828    1.8901    1.4687 H   0  0  0  0  0  0  0  0  0  0  0  0
    7.4859    2.8566    0.8840 H   0  0  0  0  0  0  0  0  0  0  0  0
  1 19  1  0  0  0  0
  1 25  1  0  0  0  0
  2 25  1  0  0  0  0
  2 65  1  0  0  0  0
  3 28  1  0  0  0  0
  3 30  1  0  0  0  0
  4 28  1  0  0  0  0
  4 66  1  0  0  0  0
  5 30  2  0  0  0  0
  6  7  1  0  0  0  0
  6  8  1  0  0  0  0
  6 13  1  0  0  0  0
  6 14  1  0  0  0  0
  7  9  1  0  0  0  0
  7 31  1  0  0  0  0
  7 32  1  0  0  0  0
  8 10  2  0  0  0  0
  8 12  1  0  0  0  0
  9 11  1  0  0  0  0
  9 33  1  0  0  0  0
  9 34  1  0  0  0  0
 10 11  1  0  0  0  0
 10 16  1  0  0  0  0
 11 35  1  0  0  0  0
 11 36  1  0  0  0  0
 12 15  1  0  0  0  0
 12 37  1  0  0  0  0
 12 38  1  0  0  0  0
 13 39  1  0  0  0  0
 13 40  1  0  0  0  0
 13 41  1  0  0  0  0
 14 42  1  0  0  0  0
 14 43  1  0  0  0  0
 14 44  1  0  0  0  0
 15 17  1  0  0  0  0
 15 45  1  0  0  0  0
 15 46  1  0  0  0  0
 16 47  1  0  0  0  0
 16 48  1  0  0  0  0
 16 49  1  0  0  0  0
 17 18  2  0  0  0  0
 17 24  1  0  0  0  0
 18 20  1  0  0  0  0
 18 51  1  0  0  0  0
 19 23  1  0  0  0  0
 19 27  1  0  0  0  0
 19 50  1  0  0  0  0
 20 21  1  0  0  0  0
 20 52  1  0  0  0  0
 20 53  1  0  0  0  0
 21 22  1  0  0  0  0
 21 54  1  0  0  0  0
 21 55  1  0  0  0  0
 22 25  1  0  0  0  0
 22 26  2  0  0  0  0
 23 26  1  0  0  0  0
 23 56  1  0  0  0  0
 23 57  1  0  0  0  0
 24 59  1  0  0  0  0
 24 60  1  0  0  0  0
 24 61  1  0  0  0  0
 25 58  1  0  0  0  0
 26 62  1  0  0  0  0
 27 28  1  0  0  0  0
 27 29  2  0  0  0  0
 28 63  1  0  0  0  0
 29 30  1  0  0  0  0
 29 64  1  0  0  0  0
M  END
> <PUBCHEM_COMPOUND_CID>
4009

> <PUBCHEM_CONFORMER_RMSD>
1.4

> <PUBCHEM_CONFORMER_DIVERSEORDER>
4
74
210
94
113
285
129
20
302
83
53
151
12
303
57
78
296
105
295
47
26
31
136
104
247
30
59
99
10
227
287
166
36
45
207
264
137
29
152
209
90
48
271
284
315
147
117
64
80
205
309
213
100
112
164
223
189
51
145
50
46
239
224
70
327
61
308
44
156
173
172
71
217
98
39
306
63
28
33
280
240
133
18
183
181
54
157
325
93
260
238
171
248
13
312
38
242
301
9
155
35
194
323
115
114
92
5
219
204
55
82
300
22
131
24
320
67
244
62
76
283
324
307
130
146
23
282
89
198
322
273
246
7
56
95
270
203
286
231
299
75
3
229
193
225
27
158
97
195
265
49
326
19
139
174
175
32
162
289
318
109
191
52
41
199
317
292
116
211
186
254
298
111
42
34
256
85
120
160
11
108
144
228
200
43
163
2
79
220
279
222
176
119
252
142
208
8
103
187
168
161
304
245
126
40
179
311
69
243
250
310
16
106
177
281
321
234
180
277
68
134
212
123
60
132
214
138
202
201
221
255
122
297
128
149
159
215
37
167
125
65
107
226
294
72
143
77
241
87
21
17
141
25
101
192
236
316
251
197
216
266
154
1
135
249
6
319
91
269
170
73
124
66
84
261
305
81
218
288
184
253
153
291
278
148
165
293
169
178
268
86
58
258
118
185
267
14
237
150
275
121
235
127
102
232
88
290
313
15
274
272
140
230
259
314
233
182
276
188
263
262
110
96
196
190
257
206

> <PUBCHEM_MMFF94_PARTIAL_CHARGES>
31
1 -0.56
10 -0.28
11 0.14
12 0.14
15 0.14
16 0.14
17 -0.28
18 -0.29
19 0.42
2 -0.68
20 0.14
21 0.14
22 -0.28
23 0.14
24 0.14
25 0.7
26 -0.29
27 -0.28
28 0.7
29 -0.14
3 -0.43
30 0.71
4 -0.68
5 -0.57
51 0.15
6 0.14
62 0.15
64 0.15
65 0.4
66 0.4
8 -0.28

> <PUBCHEM_EFFECTIVE_ROTOR_COUNT>
9

> <PUBCHEM_PHARMACOPHORE_FEATURES>
11
1 1 acceptor
1 2 acceptor
1 2 donor
1 24 hydrophobe
1 4 acceptor
1 4 donor
1 5 acceptor
3 6 13 14 hydrophobe
5 3 27 28 29 30 rings
6 1 19 22 23 25 26 rings
6 6 7 8 9 10 11 rings

> <PUBCHEM_HEAVY_ATOM_COUNT>
30

> <PUBCHEM_ATOM_DEF_STEREO_COUNT>
0

> <PUBCHEM_ATOM_UDEF_STEREO_COUNT>
3

> <PUBCHEM_BOND_DEF_STEREO_COUNT>
0

> <PUBCHEM_BOND_UDEF_STEREO_COUNT>
1

> <PUBCHEM_ISOTOPIC_ATOM_COUNT>
0

> <PUBCHEM_COMPONENT_COUNT>
1

> <PUBCHEM_CACTVS_TAUTO_COUNT>
1

> <PUBCHEM_CONFORMER_ID>
00000FA900000004

> <PUBCHEM_MMFF94_ENERGY>
38.3622

> <PUBCHEM_FEATURE_SELFOVERLAP>
55.855

> <PUBCHEM_SHAPE_FINGERPRINT>
10 15 18409449194053189207
100830 39 18410293648990576581
10299344 5 18060701692943871014
10580692 12 18410575080827612751
10670039 82 15864067707104813635
10674148 151 18272091591609503738
10883706 142 15936408936508990279
10904742 90 18411139138571568027
11181472 205 17023170644396917392
11315181 36 18202285802218129111
12089408 11 18114183012292290415
12104220 1 17060620002186656269
12664476 115 18040718074332580521
13673619 4 15267346210411254479
13885169 127 18342176674212991503
13914758 101 5400804959732026142
14118638 360 14261363486974572720
14123256 10 11527948958745635831
14150023 24 17313105267207955639
14251764 18 18411983541936601767
14251764 46 18131069338063464371
15183329 4 16008751325143016599
15461852 350 17240492382007607047
1577012 14 18261402143316335711
15840311 113 18410292485402553804
18603816 31 13901895693321762321
18608769 82 18344149193651738461
20105231 36 18060419131984441530
21267235 1 18343302574552442060
21792961 116 17822010960280571490
22224240 67 17561084704467566338
232437 2 18411418418714118490
249057 3 17894632534990192640
3178227 256 18273498957850374370
4073 2 17988639645157070763
4325135 7 10735879473608900283
45270241 37 18408317767224881708
5219985 9 15339120139049739135
5758199 1 17847063289406109514
6201320 215 14997112735178249675
6394761 36 16370445557634901178
6691757 9 15936406707173466407
67123 10 18343300366575215740
9663363 56 14692572118336626495
9689198 14 18409449189215013354
9953998 17 18131068243453290005

> <PUBCHEM_SHAPE_MULTIPOLES>
588.04
33.67
2.11
1.07
16.98
0.45
0.16
1.34
5.56
-1.7
0.03
-1.04
-0.15
1.21

> <PUBCHEM_SHAPE_SELFOVERLAP>
1217.852

> <PUBCHEM_SHAPE_VOLUME>
334.1

> <PUBCHEM_COORDINATE_TYPE>
2
5
10

$$$$

