854214
  -OEChem-06241222473D

 31 32  0     0  0  0  0  0  0999 V2000
    6.3718   -1.3179   -0.5269 F   0  0  0  0  0  0  0  0  0  0  0  0
    1.5362    1.1756    0.2120 O   0  0  0  0  0  0  0  0  0  0  0  0
   -1.7295   -1.5933    1.6898 O   0  0  0  0  0  0  0  0  0  0  0  0
   -2.6236    2.1329   -1.2003 O   0  0  0  0  0  0  0  0  0  0  0  0
   -0.7177    1.6324    1.5528 O   0  0  0  0  0  0  0  0  0  0  0  0
   -5.8430   -1.3425   -0.6995 O   0  0  0  0  0  0  0  0  0  0  0  0
   -2.1446    0.2838    0.2529 C   0  0  0  0  0  0  0  0  0  0  0  0
   -0.8451    0.8553    0.5879 C   0  0  0  0  0  0  0  0  0  0  0  0
    0.3843    0.4972   -0.2536 C   0  0  0  0  0  0  0  0  0  0  0  0
   -2.5409   -0.9273    0.8203 C   0  0  0  0  0  0  0  0  0  0  0  0
   -2.9908    0.9483   -0.6346 C   0  0  0  0  0  0  0  0  0  0  0  0
   -3.7838   -1.4738    0.5001 C   0  0  0  0  0  0  0  0  0  0  0  0
   -4.2336    0.4018   -0.9547 C   0  0  0  0  0  0  0  0  0  0  0  0
   -4.6302   -0.8092   -0.3873 C   0  0  0  0  0  0  0  0  0  0  0  0
    2.7454    0.5518    0.0264 C   0  0  0  0  0  0  0  0  0  0  0  0
    2.9214   -0.2941   -1.0611 C   0  0  0  0  0  0  0  0  0  0  0  0
    3.7767    0.7749    0.9296 C   0  0  0  0  0  0  0  0  0  0  0  0
    4.1499   -0.9275   -1.2486 C   0  0  0  0  0  0  0  0  0  0  0  0
    5.0053    0.1415    0.7419 C   0  0  0  0  0  0  0  0  0  0  0  0
    5.1919   -0.7098   -0.3472 C   0  0  0  0  0  0  0  0  0  0  0  0
    0.1861    0.7928   -1.2896 H   0  0  0  0  0  0  0  0  0  0  0  0
    0.4933   -0.5921   -0.1760 H   0  0  0  0  0  0  0  0  0  0  0  0
   -4.0871   -2.4180    0.9457 H   0  0  0  0  0  0  0  0  0  0  0  0
   -4.8995    0.9134   -1.6455 H   0  0  0  0  0  0  0  0  0  0  0  0
    2.1449   -0.4679   -1.7995 H   0  0  0  0  0  0  0  0  0  0  0  0
    3.6349    1.4368    1.7790 H   0  0  0  0  0  0  0  0  0  0  0  0
    4.2980   -1.5858   -2.0997 H   0  0  0  0  0  0  0  0  0  0  0  0
    5.8166    0.3108    1.4436 H   0  0  0  0  0  0  0  0  0  0  0  0
   -0.9169   -1.0890    1.8548 H   0  0  0  0  0  0  0  0  0  0  0  0
   -3.3365    2.4406   -1.7861 H   0  0  0  0  0  0  0  0  0  0  0  0
   -5.9524   -2.1804   -0.2178 H   0  0  0  0  0  0  0  0  0  0  0  0
  1 20  1  0  0  0  0
  2  9  1  0  0  0  0
  2 15  1  0  0  0  0
  3 10  1  0  0  0  0
  3 29  1  0  0  0  0
  4 11  1  0  0  0  0
  4 30  1  0  0  0  0
  5  8  2  0  0  0  0
  6 14  1  0  0  0  0
  6 31  1  0  0  0  0
  7  8  1  0  0  0  0
  7 10  2  0  0  0  0
  7 11  1  0  0  0  0
  8  9  1  0  0  0  0
  9 21  1  0  0  0  0
  9 22  1  0  0  0  0
 10 12  1  0  0  0  0
 11 13  2  0  0  0  0
 12 14  2  0  0  0  0
 12 23  1  0  0  0  0
 13 14  1  0  0  0  0
 13 24  1  0  0  0  0
 15 16  2  0  0  0  0
 15 17  1  0  0  0  0
 16 18  1  0  0  0  0
 16 25  1  0  0  0  0
 17 19  2  0  0  0  0
 17 26  1  0  0  0  0
 18 20  2  0  0  0  0
 18 27  1  0  0  0  0
 19 20  1  0  0  0  0
 19 28  1  0  0  0  0
M  END
> <PUBCHEM_COMPOUND_CID>
854214

> <PUBCHEM_CONFORMER_RMSD>
0.6

> <PUBCHEM_CONFORMER_DIVERSEORDER>
1
40
38
2
36
39
41
35
25
33
7
31
44
34
51
49
24
22
32
26
54
37
8
19
52
18
53
48
50
45
47
21
30
42
23
29
16
10
27
28
9
46
15
14
6
17
4
55
3
13
43
12
20
11
5

> <PUBCHEM_MMFF94_PARTIAL_CHARGES>
29
1 -0.19
10 0.08
11 0.08
12 -0.15
13 -0.15
14 0.08
15 0.08
16 -0.15
17 -0.15
18 -0.15
19 -0.15
2 -0.36
20 0.19
23 0.15
24 0.15
25 0.15
26 0.15
27 0.15
28 0.15
29 0.45
3 -0.53
30 0.45
31 0.45
4 -0.53
5 -0.57
6 -0.53
7 0.09
8 0.42
9 0.34

> <PUBCHEM_EFFECTIVE_ROTOR_COUNT>
4

> <PUBCHEM_PHARMACOPHORE_FEATURES>
7
1 2 acceptor
1 3 donor
1 4 donor
1 5 acceptor
1 6 donor
6 15 16 17 18 19 20 rings
6 7 10 11 12 13 14 rings

> <PUBCHEM_HEAVY_ATOM_COUNT>
20

> <PUBCHEM_ATOM_DEF_STEREO_COUNT>
0

> <PUBCHEM_ATOM_UDEF_STEREO_COUNT>
0

> <PUBCHEM_BOND_DEF_STEREO_COUNT>
0

> <PUBCHEM_BOND_UDEF_STEREO_COUNT>
0

> <PUBCHEM_ISOTOPIC_ATOM_COUNT>
0

> <PUBCHEM_COMPONENT_COUNT>
1

> <PUBCHEM_CACTVS_TAUTO_COUNT>
25

> <PUBCHEM_CONFORMER_ID>
000D08C600000001

> <PUBCHEM_MMFF94_ENERGY>
62.5035

> <PUBCHEM_FEATURE_SELFOVERLAP>
35.528

> <PUBCHEM_SHAPE_FINGERPRINT>
10 15 18189068529970070424
10366900 7 17676759899753077026
11315181 36 18408037429618152760
12236239 1 15502375604209448525
12363563 72 18187917374642806688
12596602 18 15502096332493328238
12954195 1 18339369660363006525
13544653 18 18113052718655243192
14341114 176 6483361019133649958
14341114 328 4750875974521672738
14386348 63 18333730212935053014
146900 427 16009320790756862552
14848160 23 18260834795442529398
14849402 71 14346378753507798722
15163728 17 15911945996713021439
15183329 4 17132119051879174839
15880784 105 17385442103044924850
15961568 22 17702948007601362988
17844677 252 18186798080464549000
17870717 6 18272365386620316103
1813 80 16588292861266318521
19050596 39 14129063599337518512
193927 3 18260534624388640334
19489759 90 18273217520889910068
200 152 17822012012257486569
20374829 77 18341335505142499903
20432913 95 17530677719333999830
20645477 70 18040996259131902534
21033650 10 17201345511493347140
21065201 7 18272941539477363296
21267235 1 17385718119851042244
21637258 2 17023475144925605503
22224240 67 8790891804987926101
22849339 104 17631998767774310827
23175994 123 18261111846803749233
23198884 109 16702301260604643238
23402539 116 17894910754239456705
23402655 69 13830126179476588178
23403322 49 18407758144620997915
23557571 272 18412263968894209252
23559900 14 18200879461293345400
26918003 58 17968095339010903320
300161 21 15267341799996759652
3004659 81 18131351899687928556
5104073 3 17240764055726828746
5283173 99 18337114569728971329
559249 180 18059863921187106082
960060 61 16702301274301843930
9709674 26 18198903604485226515

> <PUBCHEM_SHAPE_MULTIPOLES>
374.97
13.42
1.6
1.27
8.02
0.13
0.14
-5.75
-2.78
-0.95
0.06
-0.12
0
1.28

> <PUBCHEM_SHAPE_SELFOVERLAP>
811.371

> <PUBCHEM_SHAPE_VOLUME>
206.3

> <PUBCHEM_COORDINATE_TYPE>
2
5
10

$$$$

