13297
  -OEChem-06261208393D

 31 33  0     0  0  0  0  0  0999 V2000
   -0.2479   -3.0278   -0.2440 O   0  0  0  0  0  0  0  0  0  0  0  0
    0.5409   -0.3926   -0.5153 N   0  0  0  0  0  0  0  0  0  0  0  0
    1.1470   -0.2434    0.5691 N   0  0  0  0  0  0  0  0  0  0  0  0
   -1.7678    0.3252   -0.1510 C   0  0  0  0  0  0  0  0  0  0  0  0
   -3.1172   -0.0194    0.1006 C   0  0  0  0  0  0  0  0  0  0  0  0
   -0.8087   -0.6943   -0.2658 C   0  0  0  0  0  0  0  0  0  0  0  0
   -3.4678   -1.3733    0.2297 C   0  0  0  0  0  0  0  0  0  0  0  0
   -1.4175    1.6790   -0.2805 C   0  0  0  0  0  0  0  0  0  0  0  0
   -1.1746   -2.0343   -0.1341 C   0  0  0  0  0  0  0  0  0  0  0  0
   -4.0764    0.9999    0.2151 C   0  0  0  0  0  0  0  0  0  0  0  0
   -2.5017   -2.3732    0.1129 C   0  0  0  0  0  0  0  0  0  0  0  0
   -2.3836    2.6787   -0.1634 C   0  0  0  0  0  0  0  0  0  0  0  0
   -3.7106    2.3398    0.0840 C   0  0  0  0  0  0  0  0  0  0  0  0
    2.4969    0.0580    0.3200 C   0  0  0  0  0  0  0  0  0  0  0  0
    2.8943    1.3844    0.1838 C   0  0  0  0  0  0  0  0  0  0  0  0
    3.4255   -0.9722    0.2113 C   0  0  0  0  0  0  0  0  0  0  0  0
    4.2341    1.6836   -0.0634 C   0  0  0  0  0  0  0  0  0  0  0  0
    4.7654   -0.6730   -0.0358 C   0  0  0  0  0  0  0  0  0  0  0  0
    5.1696    0.6549   -0.1732 C   0  0  0  0  0  0  0  0  0  0  0  0
   -4.4991   -1.6612    0.4231 H   0  0  0  0  0  0  0  0  0  0  0  0
   -0.3943    1.9875   -0.4799 H   0  0  0  0  0  0  0  0  0  0  0  0
   -5.1196    0.7581    0.4082 H   0  0  0  0  0  0  0  0  0  0  0  0
   -2.7931   -3.4150    0.2163 H   0  0  0  0  0  0  0  0  0  0  0  0
   -2.0999    3.7220   -0.2670 H   0  0  0  0  0  0  0  0  0  0  0  0
   -4.4623    3.1185    0.1746 H   0  0  0  0  0  0  0  0  0  0  0  0
    2.1729    2.1924    0.2696 H   0  0  0  0  0  0  0  0  0  0  0  0
    3.1193   -2.0095    0.3179 H   0  0  0  0  0  0  0  0  0  0  0  0
    0.6184   -2.6196   -0.4161 H   0  0  0  0  0  0  0  0  0  0  0  0
    4.5489    2.7176   -0.1700 H   0  0  0  0  0  0  0  0  0  0  0  0
    5.4939   -1.4740   -0.1211 H   0  0  0  0  0  0  0  0  0  0  0  0
    6.2128    0.8878   -0.3656 H   0  0  0  0  0  0  0  0  0  0  0  0
  1  9  1  0  0  0  0
  1 28  1  0  0  0  0
  2  3  2  0  0  0  0
  2  6  1  0  0  0  0
  3 14  1  0  0  0  0
  4  5  1  0  0  0  0
  4  6  1  0  0  0  0
  4  8  2  0  0  0  0
  5  7  1  0  0  0  0
  5 10  2  0  0  0  0
  6  9  2  0  0  0  0
  7 11  2  0  0  0  0
  7 20  1  0  0  0  0
  8 12  1  0  0  0  0
  8 21  1  0  0  0  0
  9 11  1  0  0  0  0
 10 13  1  0  0  0  0
 10 22  1  0  0  0  0
 11 23  1  0  0  0  0
 12 13  2  0  0  0  0
 12 24  1  0  0  0  0
 13 25  1  0  0  0  0
 14 15  2  0  0  0  0
 14 16  1  0  0  0  0
 15 17  1  0  0  0  0
 15 26  1  0  0  0  0
 16 18  2  0  0  0  0
 16 27  1  0  0  0  0
 17 19  2  0  0  0  0
 17 29  1  0  0  0  0
 18 19  1  0  0  0  0
 18 30  1  0  0  0  0
 19 31  1  0  0  0  0
M  END
> <PUBCHEM_COMPOUND_CID>
13297

> <PUBCHEM_CONFORMER_RMSD>
0.6

> <PUBCHEM_CONFORMER_DIVERSEORDER>
1
2
3

> <PUBCHEM_MMFF94_PARTIAL_CHARGES>
29
1 -0.53
10 -0.15
11 -0.15
12 -0.15
13 -0.15
14 0.18
15 -0.15
16 -0.15
17 -0.15
18 -0.15
19 -0.15
2 -0.18
20 0.15
21 0.15
22 0.15
23 0.15
24 0.15
25 0.15
26 0.15
27 0.15
28 0.45
29 0.15
3 -0.18
30 0.15
31 0.15
6 0.18
7 -0.15
8 -0.15
9 0.08

> <PUBCHEM_EFFECTIVE_ROTOR_COUNT>
2

> <PUBCHEM_PHARMACOPHORE_FEATURES>
4
1 1 donor
6 14 15 16 17 18 19 rings
6 4 5 6 7 9 11 rings
6 4 5 8 10 12 13 rings

> <PUBCHEM_HEAVY_ATOM_COUNT>
19

> <PUBCHEM_ATOM_DEF_STEREO_COUNT>
0

> <PUBCHEM_ATOM_UDEF_STEREO_COUNT>
0

> <PUBCHEM_BOND_DEF_STEREO_COUNT>
0

> <PUBCHEM_BOND_UDEF_STEREO_COUNT>
0

> <PUBCHEM_ISOTOPIC_ATOM_COUNT>
0

> <PUBCHEM_COMPONENT_COUNT>
1

> <PUBCHEM_CACTVS_TAUTO_COUNT>
3

> <PUBCHEM_CONFORMER_ID>
000033F100000001

> <PUBCHEM_MMFF94_ENERGY>
56.8263

> <PUBCHEM_FEATURE_SELFOVERLAP>
20.324

> <PUBCHEM_SHAPE_FINGERPRINT>
10319926 262 18336562551363403290
10411042 1 17906170647036380255
10493431 412 18263915691970813633
10608611 8 18335704918760008368
10616163 171 18410573959688037742
11405975 8 18413112775386808722
12107183 9 17909838961391538882
12173636 292 18410300194003141166
12236239 1 17775567524329545127
12390115 104 18188755280071338705
13140716 1 17764018461204332841
138480 1 17113538675838906547
14251751 93 18412267267644896034
14341114 176 18412537726183726384
14420673 8 18197216073850764418
14790565 3 18264481965791591785
15042514 8 18267861680051877539
15196674 1 18410856551398326416
15442244 35 18340773732089200106
17834072 32 18338797939300382905
20510252 161 18335136471232500755
20645477 56 18411133658092499812
20645477 70 16805593811836208158
21065198 57 18410012122426187874
21267235 1 18341041913541067682
21524375 3 18261116334817258863
21652331 79 18412262796526087344
2297311 6 18337377245823056054
2306618 200 18187075140293500899
23175994 123 17095234804986270864
23227448 37 18409449180514270221
23366157 5 17985262134262414899
23402539 116 18262243214330508415
23557571 272 18262226734356110844
23559900 14 18188206628348797894
245318 6 16409557158116520476
2748010 2 17981029028292099415
3298306 158 18114173181677088110
335352 9 18266178516701355406
3545911 37 18409165519879266456
4214541 1 18410856564404391712
5104073 3 18411984650576085528
559249 180 18339366370286182346
7097593 13 17914353504432458546
77779 3 18411418389171158098
9709674 26 18335415768735236510

> <PUBCHEM_SHAPE_MULTIPOLES>
375.18
9.72
2.9
0.66
9.97
0.35
0
-3.14
-0.37
-2.59
0.13
0.01
-0.01
0.01

> <PUBCHEM_SHAPE_SELFOVERLAP>
834.015

> <PUBCHEM_SHAPE_VOLUME>
200.4

> <PUBCHEM_COORDINATE_TYPE>
2
5
10

$$$$

