10811
  -OEChem-06261204592D

 36 37  0     0  0  0  0  0  0999 V2000
    4.7796    1.8851    0.0000 S   0  0  0  0  0  0  0  0  0  0  0  0
    3.0000    0.7918    0.0000 S   0  0  0  0  0  0  0  0  0  0  0  0
    4.0000    0.7918    0.0000 O   0  0  0  0  0  0  0  0  0  0  0  0
    2.0000    0.7918    0.0000 O   0  0  0  0  0  0  0  0  0  0  0  0
    4.9487    3.4942    0.0000 N   0  0  0  0  0  0  0  0  0  0  0  0
    3.0000    1.7918    0.0000 N   0  0  0  0  0  0  0  0  0  0  0  0
    3.9706    3.2863    0.0000 N   0  0  0  0  0  0  0  0  0  0  0  0
    3.0000   -3.2082    0.0000 N   0  0  0  0  0  0  0  0  0  0  0  0
    6.4432    2.5237    0.0000 C   0  0  0  0  0  0  0  0  0  0  0  0
    5.4487    2.6282    0.0000 C   0  0  0  0  0  0  0  0  0  0  0  0
    7.4378    2.4192    0.0000 C   0  0  0  0  0  0  0  0  0  0  0  0
    6.5478    3.5182    0.0000 C   0  0  0  0  0  0  0  0  0  0  0  0
    6.3387    1.5292    0.0000 C   0  0  0  0  0  0  0  0  0  0  0  0
    3.8660    2.2918    0.0000 C   0  0  0  0  0  0  0  0  0  0  0  0
    3.0000   -0.2082    0.0000 C   0  0  0  0  0  0  0  0  0  0  0  0
    2.1340   -0.7082    0.0000 C   0  0  0  0  0  0  0  0  0  0  0  0
    3.8660   -0.7082    0.0000 C   0  0  0  0  0  0  0  0  0  0  0  0
    2.1340   -1.7082    0.0000 C   0  0  0  0  0  0  0  0  0  0  0  0
    3.8660   -1.7082    0.0000 C   0  0  0  0  0  0  0  0  0  0  0  0
    3.0000   -2.2082    0.0000 C   0  0  0  0  0  0  0  0  0  0  0  0
    7.3729    1.8026    0.0000 H   0  0  0  0  0  0  0  0  0  0  0  0
    8.0544    2.3543    0.0000 H   0  0  0  0  0  0  0  0  0  0  0  0
    7.5026    3.0358    0.0000 H   0  0  0  0  0  0  0  0  0  0  0  0
    7.1644    3.4534    0.0000 H   0  0  0  0  0  0  0  0  0  0  0  0
    6.6126    4.1348    0.0000 H   0  0  0  0  0  0  0  0  0  0  0  0
    5.9312    3.5830    0.0000 H   0  0  0  0  0  0  0  0  0  0  0  0
    5.7221    1.5940    0.0000 H   0  0  0  0  0  0  0  0  0  0  0  0
    6.2739    0.9126    0.0000 H   0  0  0  0  0  0  0  0  0  0  0  0
    6.9553    1.4644    0.0000 H   0  0  0  0  0  0  0  0  0  0  0  0
    2.4631    2.1018    0.0000 H   0  0  0  0  0  0  0  0  0  0  0  0
    1.5970   -0.3982    0.0000 H   0  0  0  0  0  0  0  0  0  0  0  0
    4.4030   -0.3982    0.0000 H   0  0  0  0  0  0  0  0  0  0  0  0
    1.5970   -2.0182    0.0000 H   0  0  0  0  0  0  0  0  0  0  0  0
    4.4030   -2.0182    0.0000 H   0  0  0  0  0  0  0  0  0  0  0  0
    2.4631   -3.5182    0.0000 H   0  0  0  0  0  0  0  0  0  0  0  0
    3.5369   -3.5182    0.0000 H   0  0  0  0  0  0  0  0  0  0  0  0
  1 10  1  0  0  0  0
  1 14  1  0  0  0  0
  2  3  2  0  0  0  0
  2  4  2  0  0  0  0
  2  6  1  0  0  0  0
  2 15  1  0  0  0  0
  5  7  1  0  0  0  0
  5 10  2  0  0  0  0
  6 14  1  0  0  0  0
  6 30  1  0  0  0  0
  7 14  2  0  0  0  0
  8 20  1  0  0  0  0
  8 35  1  0  0  0  0
  8 36  1  0  0  0  0
  9 10  1  0  0  0  0
  9 11  1  0  0  0  0
  9 12  1  0  0  0  0
  9 13  1  0  0  0  0
 11 21  1  0  0  0  0
 11 22  1  0  0  0  0
 11 23  1  0  0  0  0
 12 24  1  0  0  0  0
 12 25  1  0  0  0  0
 12 26  1  0  0  0  0
 13 27  1  0  0  0  0
 13 28  1  0  0  0  0
 13 29  1  0  0  0  0
 15 16  2  0  0  0  0
 15 17  1  0  0  0  0
 16 18  1  0  0  0  0
 16 31  1  0  0  0  0
 17 19  2  0  0  0  0
 17 32  1  0  0  0  0
 18 20  2  0  0  0  0
 18 33  1  0  0  0  0
 19 20  1  0  0  0  0
 19 34  1  0  0  0  0
M  END
> <PUBCHEM_COMPOUND_CID>
10811

> <PUBCHEM_COMPOUND_CANONICALIZED>
1

> <PUBCHEM_CACTVS_COMPLEXITY>
422

> <PUBCHEM_CACTVS_HBOND_ACCEPTOR>
7

> <PUBCHEM_CACTVS_HBOND_DONOR>
2

> <PUBCHEM_CACTVS_ROTATABLE_BOND>
4

> <PUBCHEM_CACTVS_SUBSKEYS>
AAADceBzsABgAAAAAAAAAAAAAAAAAWAAAAAwAAAAAAAAAAABwAAAHAQYQAAADgiBUgAz0YBAAAqmACRiYHDSAJJgAhEciBggZIgIICKgkZGAIABwmAAIyAcQAAAAAAQAAAAAAAAACAAAAAAAAAAAAAAAAA==

> <PUBCHEM_IUPAC_OPENEYE_NAME>
4-amino-N-(5-tert-butyl-1,3,4-thiadiazol-2-yl)benzenesulfonamide

> <PUBCHEM_IUPAC_CAS_NAME>
4-amino-N-(5-tert-butyl-1,3,4-thiadiazol-2-yl)benzenesulfonamide

> <PUBCHEM_IUPAC_NAME>
4-amino-N-(5-tert-butyl-1,3,4-thiadiazol-2-yl)benzenesulfonamide

> <PUBCHEM_IUPAC_SYSTEMATIC_NAME>
4-azanyl-N-(5-tert-butyl-1,3,4-thiadiazol-2-yl)benzenesulfonamide

> <PUBCHEM_IUPAC_TRADITIONAL_NAME>
4-amino-N-(5-tert-butyl-1,3,4-thiadiazol-2-yl)benzenesulfonamide

> <PUBCHEM_IUPAC_INCHI>
InChI=1S/C12H16N4O2S2/c1-12(2,3)10-14-15-11(19-10)16-20(17,18)9-6-4-8(13)5-7-9/h4-7H,13H2,1-3H3,(H,15,16)

> <PUBCHEM_IUPAC_INCHIKEY>
DVQVBLBKEXITIK-UHFFFAOYSA-N

> <PUBCHEM_XLOGP3>
1.8

> <PUBCHEM_EXACT_MASS>
312.071468

> <PUBCHEM_MOLECULAR_FORMULA>
C12H16N4O2S2

> <PUBCHEM_MOLECULAR_WEIGHT>
312.41104

> <PUBCHEM_OPENEYE_CAN_SMILES>
CC(C)(C)C1=NN=C(S1)NS(=O)(=O)C2=CC=C(C=C2)N

> <PUBCHEM_OPENEYE_ISO_SMILES>
CC(C)(C)C1=NN=C(S1)NS(=O)(=O)C2=CC=C(C=C2)N

> <PUBCHEM_CACTVS_TPSA>
135

> <PUBCHEM_MONOISOTOPIC_WEIGHT>
312.071468

> <PUBCHEM_TOTAL_CHARGE>
0

> <PUBCHEM_HEAVY_ATOM_COUNT>
20

> <PUBCHEM_ATOM_DEF_STEREO_COUNT>
0

> <PUBCHEM_ATOM_UDEF_STEREO_COUNT>
0

> <PUBCHEM_BOND_DEF_STEREO_COUNT>
0

> <PUBCHEM_BOND_UDEF_STEREO_COUNT>
0

> <PUBCHEM_ISOTOPIC_ATOM_COUNT>
0

> <PUBCHEM_COMPONENT_COUNT>
1

> <PUBCHEM_CACTVS_TAUTO_COUNT>
2

> <PUBCHEM_COORDINATE_TYPE>
1
5
255

> <PUBCHEM_BONDANNOTATIONS>
1  10  8
1  14  8
15  16  8
15  17  8
16  18  8
17  19  8
18  20  8
19  20  8
5  10  8
5  7  8
7  14  8

$$$$

