13354
  -OEChem-06261209152D

 16 13  0     1  0  0  0  0  0999 V2000
    4.5981   -1.2500    0.0000 O   0  0  0  0  0  0  0  0  0  0  0  0
    5.4641    1.2500    0.0000 O   0  0  0  0  0  0  0  0  0  0  0  0
    2.8660   -0.2500    0.0000 O   0  5  0  0  0  0  0  0  0  0  0  0
    7.1962    0.2500    0.0000 O   0  5  0  0  0  0  0  0  0  0  0  0
    3.7320    1.2500    0.0000 O   0  0  0  0  0  0  0  0  0  0  0  0
    6.3301   -1.2500    0.0000 O   0  0  0  0  0  0  0  0  0  0  0  0
    4.5981   -0.2500    0.0000 C   0  0  2  0  0  0  0  0  0  0  0  0
    5.4641    0.2500    0.0000 C   0  0  2  0  0  0  0  0  0  0  0  0
    3.7320    0.2500    0.0000 C   0  0  0  0  0  0  0  0  0  0  0  0
    6.3301   -0.2500    0.0000 C   0  0  0  0  0  0  0  0  0  0  0  0
    2.0000    0.2500    0.0000 Li  0  3  0  0  0  0  0  0  0  0  0  0
    8.0622   -0.2500    0.0000 Li  0  3  0  0  0  0  0  0  0  0  0  0
    5.1350   -0.5600    0.0000 H   0  0  0  0  0  0  0  0  0  0  0  0
    6.0010    0.5600    0.0000 H   0  0  0  0  0  0  0  0  0  0  0  0
    4.0611   -1.5600    0.0000 H   0  0  0  0  0  0  0  0  0  0  0  0
    6.0010    1.5600    0.0000 H   0  0  0  0  0  0  0  0  0  0  0  0
  7  1  1  1  0  0  0
  1 15  1  0  0  0  0
  8  2  1  1  0  0  0
  2 16  1  0  0  0  0
  3  9  1  0  0  0  0
  4 10  1  0  0  0  0
  5  9  2  0  0  0  0
  6 10  2  0  0  0  0
  7  8  1  0  0  0  0
  7  9  1  0  0  0  0
  7 13  1  0  0  0  0
  8 10  1  0  0  0  0
  8 14  1  0  0  0  0
M  CHG  4   3  -1   4  -1  11   1  12   1
M  END
> <PUBCHEM_COMPOUND_CID>
13354

> <PUBCHEM_COMPOUND_CANONICALIZED>
1

> <PUBCHEM_CACTVS_COMPLEXITY>
123

> <PUBCHEM_CACTVS_HBOND_ACCEPTOR>
6

> <PUBCHEM_CACTVS_HBOND_DONOR>
2

> <PUBCHEM_CACTVS_ROTATABLE_BOND>
1

> <PUBCHEM_CACTVS_SUBSKEYS>
AAADcYxgOAAAAAAAAAAAAAAAAAAAAAAAAAAAAAAAAAAAAAAAAAAAGgAACAAACBSggAIACAAAAgAIAACQCAIAAAAAAAAAAAFAAAABEBQAAAAAQAAFIAABAABDAAAAAAAAAAAAAAAAAAAAAAAAAAAAAAAAAA==

> <PUBCHEM_IUPAC_OPENEYE_NAME>
dilithium (2R,3R)-2,3-dihydroxybutanedioate

> <PUBCHEM_IUPAC_CAS_NAME>
dilithium (2R,3R)-2,3-dihydroxybutanedioate

> <PUBCHEM_IUPAC_NAME>
dilithium (2R,3R)-2,3-dihydroxybutanedioate

> <PUBCHEM_IUPAC_SYSTEMATIC_NAME>
dilithium (2R,3R)-2,3-bis(oxidanyl)butanedioate

> <PUBCHEM_IUPAC_TRADITIONAL_NAME>
dilithium (2R,3R)-2,3-dihydroxysuccinate

> <PUBCHEM_IUPAC_INCHI>
InChI=1S/C4H6O6.2Li/c5-1(3(7)8)2(6)4(9)10;;/h1-2,5-6H,(H,7,8)(H,9,10);;/q;2*+1/p-2/t1-,2-;;/m1../s1

> <PUBCHEM_IUPAC_INCHIKEY>
JCCYXJAEFHYHPP-OLXYHTOASA-L

> <PUBCHEM_EXACT_MASS>
162.032797

> <PUBCHEM_MOLECULAR_FORMULA>
C4H4Li2O6

> <PUBCHEM_MOLECULAR_WEIGHT>
161.95296

> <PUBCHEM_OPENEYE_CAN_SMILES>
[Li+].[Li+].C(C(C(=O)[O-])O)(C(=O)[O-])O

> <PUBCHEM_OPENEYE_ISO_SMILES>
[Li+].[Li+].[C@@H]([C@H](C(=O)[O-])O)(C(=O)[O-])O

> <PUBCHEM_CACTVS_TPSA>
121

> <PUBCHEM_MONOISOTOPIC_WEIGHT>
162.032797

> <PUBCHEM_TOTAL_CHARGE>
0

> <PUBCHEM_HEAVY_ATOM_COUNT>
12

> <PUBCHEM_ATOM_DEF_STEREO_COUNT>
2

> <PUBCHEM_ATOM_UDEF_STEREO_COUNT>
0

> <PUBCHEM_BOND_DEF_STEREO_COUNT>
0

> <PUBCHEM_BOND_UDEF_STEREO_COUNT>
0

> <PUBCHEM_ISOTOPIC_ATOM_COUNT>
0

> <PUBCHEM_COMPONENT_COUNT>
3

> <PUBCHEM_CACTVS_TAUTO_COUNT>
1

> <PUBCHEM_COORDINATE_TYPE>
1
5
255

> <PUBCHEM_BONDANNOTATIONS>
7  1  5
8  2  5

$$$$

