11707
  -OEChem-06261206013D

 68 67  0     0  0  0  0  0  0999 V2000
   -6.9428   -0.0819    0.2684 N   0  3  0  0  0  0  0  0  0  0  0  0
    6.9377   -0.0925   -0.2558 N   0  3  0  0  0  0  0  0  0  0  0  0
   -5.7263   -0.1110   -0.5776 C   0  0  0  0  0  0  0  0  0  0  0  0
    5.7176   -0.1227    0.5844 C   0  0  0  0  0  0  0  0  0  0  0  0
   -4.4728   -0.1906    0.2862 C   0  0  0  0  0  0  0  0  0  0  0  0
    4.4652   -0.1032   -0.2833 C   0  0  0  0  0  0  0  0  0  0  0  0
   -8.2097   -0.0151   -0.5967 C   0  0  0  0  0  0  0  0  0  0  0  0
   -6.9350    1.1422    1.1956 C   0  0  0  0  0  0  0  0  0  0  0  0
    8.2016   -0.0467    0.6154 C   0  0  0  0  0  0  0  0  0  0  0  0
    6.9439    1.1434   -1.1674 C   0  0  0  0  0  0  0  0  0  0  0  0
   -3.1747   -0.1736   -0.5275 C   0  0  0  0  0  0  0  0  0  0  0  0
    3.1643   -0.1424    0.5240 C   0  0  0  0  0  0  0  0  0  0  0  0
   -7.0309   -1.3406    1.1438 C   0  0  0  0  0  0  0  0  0  0  0  0
    7.0200   -1.3406   -1.1469 C   0  0  0  0  0  0  0  0  0  0  0  0
   -1.9155   -0.2647    0.3422 C   0  0  0  0  0  0  0  0  0  0  0  0
    1.9405   -0.1318   -0.3965 C   0  0  0  0  0  0  0  0  0  0  0  0
   -0.6174   -0.1699   -0.4640 C   0  0  0  0  0  0  0  0  0  0  0  0
    0.6412   -0.2010    0.4090 C   0  0  0  0  0  0  0  0  0  0  0  0
   -8.2872   -1.2529   -1.4634 C   0  0  0  0  0  0  0  0  0  0  0  0
   -6.8487    2.4002    0.3593 C   0  0  0  0  0  0  0  0  0  0  0  0
    8.2657   -1.2960    1.4665 C   0  0  0  0  0  0  0  0  0  0  0  0
    6.8635    2.3913   -0.3156 C   0  0  0  0  0  0  0  0  0  0  0  0
   -5.7156    0.7389   -1.2664 H   0  0  0  0  0  0  0  0  0  0  0  0
   -5.7446   -1.0167   -1.1923 H   0  0  0  0  0  0  0  0  0  0  0  0
    5.7041   -1.0593    1.1519 H   0  0  0  0  0  0  0  0  0  0  0  0
    5.7357    0.6924    1.3146 H   0  0  0  0  0  0  0  0  0  0  0  0
   -4.4038    0.6534    0.9775 H   0  0  0  0  0  0  0  0  0  0  0  0
   -4.4671   -1.1057    0.8880 H   0  0  0  0  0  0  0  0  0  0  0  0
    4.4128    0.8055   -0.8896 H   0  0  0  0  0  0  0  0  0  0  0  0
    4.4506   -0.9552   -0.9710 H   0  0  0  0  0  0  0  0  0  0  0  0
   -8.1555    0.8575   -1.2513 H   0  0  0  0  0  0  0  0  0  0  0  0
   -9.0780    0.0673    0.0661 H   0  0  0  0  0  0  0  0  0  0  0  0
   -6.1226    1.0604    1.9220 H   0  0  0  0  0  0  0  0  0  0  0  0
   -7.8760    1.1252    1.7593 H   0  0  0  0  0  0  0  0  0  0  0  0
    8.1509    0.8189    1.2799 H   0  0  0  0  0  0  0  0  0  0  0  0
    9.0734    0.0374   -0.0425 H   0  0  0  0  0  0  0  0  0  0  0  0
    6.1356    1.0748   -1.9001 H   0  0  0  0  0  0  0  0  0  0  0  0
    7.8876    1.1265   -1.7266 H   0  0  0  0  0  0  0  0  0  0  0  0
   -3.1808   -1.0086   -1.2388 H   0  0  0  0  0  0  0  0  0  0  0  0
   -3.1374    0.7486   -1.1206 H   0  0  0  0  0  0  0  0  0  0  0  0
    3.1263    0.7199    1.2006 H   0  0  0  0  0  0  0  0  0  0  0  0
    3.1491   -1.0447    1.1471 H   0  0  0  0  0  0  0  0  0  0  0  0
   -6.7470   -2.2185    0.5571 H   0  0  0  0  0  0  0  0  0  0  0  0
   -6.3510   -1.2308    1.9941 H   0  0  0  0  0  0  0  0  0  0  0  0
   -8.0535   -1.4322    1.5231 H   0  0  0  0  0  0  0  0  0  0  0  0
    6.3433   -1.2162   -1.9975 H   0  0  0  0  0  0  0  0  0  0  0  0
    6.7280   -2.2238   -0.5723 H   0  0  0  0  0  0  0  0  0  0  0  0
    8.0432   -1.4345   -1.5242 H   0  0  0  0  0  0  0  0  0  0  0  0
   -1.9282   -1.2087    0.9004 H   0  0  0  0  0  0  0  0  0  0  0  0
   -1.9338    0.5430    1.0844 H   0  0  0  0  0  0  0  0  0  0  0  0
    1.9873   -0.9834   -1.0858 H   0  0  0  0  0  0  0  0  0  0  0  0
    1.9450    0.7795   -1.0065 H   0  0  0  0  0  0  0  0  0  0  0  0
   -0.6226    0.7577   -1.0496 H   0  0  0  0  0  0  0  0  0  0  0  0
   -0.5799   -0.9979   -1.1825 H   0  0  0  0  0  0  0  0  0  0  0  0
    0.6374   -1.1190    1.0096 H   0  0  0  0  0  0  0  0  0  0  0  0
    0.6070    0.6388    1.1142 H   0  0  0  0  0  0  0  0  0  0  0  0
   -9.2229   -1.2129   -2.0349 H   0  0  0  0  0  0  0  0  0  0  0  0
   -8.3250   -2.1886   -0.9010 H   0  0  0  0  0  0  0  0  0  0  0  0
   -7.4927   -1.3119   -2.2114 H   0  0  0  0  0  0  0  0  0  0  0  0
   -6.8547    3.2584    1.0435 H   0  0  0  0  0  0  0  0  0  0  0  0
   -7.6998    2.5614   -0.3046 H   0  0  0  0  0  0  0  0  0  0  0  0
   -5.9193    2.4924   -0.2073 H   0  0  0  0  0  0  0  0  0  0  0  0
    9.1914   -1.2645    2.0543 H   0  0  0  0  0  0  0  0  0  0  0  0
    8.3128   -2.2229    0.8899 H   0  0  0  0  0  0  0  0  0  0  0  0
    7.4569   -1.3664    2.1980 H   0  0  0  0  0  0  0  0  0  0  0  0
    6.8590    3.2579   -0.9888 H   0  0  0  0  0  0  0  0  0  0  0  0
    7.7248    2.5439    0.3377 H   0  0  0  0  0  0  0  0  0  0  0  0
    5.9440    2.4746    0.2680 H   0  0  0  0  0  0  0  0  0  0  0  0
  1  3  1  0  0  0  0
  1  7  1  0  0  0  0
  1  8  1  0  0  0  0
  1 13  1  0  0  0  0
  2  4  1  0  0  0  0
  2  9  1  0  0  0  0
  2 10  1  0  0  0  0
  2 14  1  0  0  0  0
  3  5  1  0  0  0  0
  3 23  1  0  0  0  0
  3 24  1  0  0  0  0
  4  6  1  0  0  0  0
  4 25  1  0  0  0  0
  4 26  1  0  0  0  0
  5 11  1  0  0  0  0
  5 27  1  0  0  0  0
  5 28  1  0  0  0  0
  6 12  1  0  0  0  0
  6 29  1  0  0  0  0
  6 30  1  0  0  0  0
  7 19  1  0  0  0  0
  7 31  1  0  0  0  0
  7 32  1  0  0  0  0
  8 20  1  0  0  0  0
  8 33  1  0  0  0  0
  8 34  1  0  0  0  0
  9 21  1  0  0  0  0
  9 35  1  0  0  0  0
  9 36  1  0  0  0  0
 10 22  1  0  0  0  0
 10 37  1  0  0  0  0
 10 38  1  0  0  0  0
 11 15  1  0  0  0  0
 11 39  1  0  0  0  0
 11 40  1  0  0  0  0
 12 16  1  0  0  0  0
 12 41  1  0  0  0  0
 12 42  1  0  0  0  0
 13 43  1  0  0  0  0
 13 44  1  0  0  0  0
 13 45  1  0  0  0  0
 14 46  1  0  0  0  0
 14 47  1  0  0  0  0
 14 48  1  0  0  0  0
 15 17  1  0  0  0  0
 15 49  1  0  0  0  0
 15 50  1  0  0  0  0
 16 18  1  0  0  0  0
 16 51  1  0  0  0  0
 16 52  1  0  0  0  0
 17 18  1  0  0  0  0
 17 53  1  0  0  0  0
 17 54  1  0  0  0  0
 18 55  1  0  0  0  0
 18 56  1  0  0  0  0
 19 57  1  0  0  0  0
 19 58  1  0  0  0  0
 19 59  1  0  0  0  0
 20 60  1  0  0  0  0
 20 61  1  0  0  0  0
 20 62  1  0  0  0  0
 21 63  1  0  0  0  0
 21 64  1  0  0  0  0
 21 65  1  0  0  0  0
 22 66  1  0  0  0  0
 22 67  1  0  0  0  0
 22 68  1  0  0  0  0
M  CHG  2   1   1   2   1
M  END
> <PUBCHEM_COMPOUND_CID>
11707

> <PUBCHEM_CONFORMER_RMSD>
1.4

> <PUBCHEM_CONFORMER_DIVERSEORDER>
1
37
13
39
32
11
7
28
36
27
3
41
30
48
45
12
35
4
46
44
8
20
10
23
26
24
34
16
14
22
49
25
31
40
38
9
15
47
21
19
42
33
17
43
6
18
29
2
5

> <PUBCHEM_MMFF94_PARTIAL_CHARGES>
10
1 -1.01
10 0.5
13 0.5
14 0.5
2 -1.01
3 0.5
4 0.5
7 0.5
8 0.5
9 0.5

> <PUBCHEM_EFFECTIVE_ROTOR_COUNT>
15

> <PUBCHEM_PHARMACOPHORE_FEATURES>
2
1 1 cation
1 2 cation

> <PUBCHEM_HEAVY_ATOM_COUNT>
22

> <PUBCHEM_ATOM_DEF_STEREO_COUNT>
0

> <PUBCHEM_ATOM_UDEF_STEREO_COUNT>
0

> <PUBCHEM_BOND_DEF_STEREO_COUNT>
0

> <PUBCHEM_BOND_UDEF_STEREO_COUNT>
0

> <PUBCHEM_ISOTOPIC_ATOM_COUNT>
0

> <PUBCHEM_COMPONENT_COUNT>
1

> <PUBCHEM_CACTVS_TAUTO_COUNT>
1

> <PUBCHEM_CONFORMER_ID>
00002DBB00000001

> <PUBCHEM_MMFF94_ENERGY>
60.6427

> <PUBCHEM_FEATURE_SELFOVERLAP>
10.149

> <PUBCHEM_SHAPE_FINGERPRINT>
10299344 5 18202002131358057026
11135609 127 18115030685436770072
11315181 36 18201999916273030281
12082328 90 18113337531512249861
12091667 2 18259984878008783571
13885169 127 18040716978746414255
14251764 18 18413106156277949741
14251764 46 18411138034637852586
15461852 350 18040719139579045375
15554971 5 18410294709198281884
22224240 67 17418094303986419498
232437 2 17703791418675820243
23521765 1 18335421265881496183
33684 2 17847064389218235275
5758199 1 17703788124187646771
67123 10 17675927581665878183
8209 1 18410294709208682006

> <PUBCHEM_SHAPE_MULTIPOLES>
442.79
36.28
1.6
1.21
0.29
0.99
-0.01
-0.1
-0.21
-0.02
-0.02
0.02
-0.26
-1.86

> <PUBCHEM_SHAPE_SELFOVERLAP>
810.17

> <PUBCHEM_SHAPE_VOLUME>
283.2

> <PUBCHEM_COORDINATE_TYPE>
2
5
10

$$$$

