11349
  -OEChem-06261205343D

 28 30  0     0  0  0  0  0  0999 V2000
   -0.2391   -1.0086   -0.0050 O   0  0  0  0  0  0  0  0  0  0  0  0
    0.8527    2.5120   -0.0166 O   0  0  0  0  0  0  0  0  0  0  0  0
   -1.9224    2.7024   -0.0034 O   0  0  0  0  0  0  0  0  0  0  0  0
   -2.2401    0.3655    0.0018 C   0  0  0  0  0  0  0  0  0  0  0  0
    0.5385    0.1383    0.0082 C   0  0  0  0  0  0  0  0  0  0  0  0
   -1.6034   -0.8736   -0.0018 C   0  0  0  0  0  0  0  0  0  0  0  0
    1.9840   -0.1471    0.0045 C   0  0  0  0  0  0  0  0  0  0  0  0
    0.0500    1.3919    0.0029 C   0  0  0  0  0  0  0  0  0  0  0  0
   -1.4199    1.5866    0.0005 C   0  0  0  0  0  0  0  0  0  0  0  0
   -3.6350    0.4421    0.0049 C   0  0  0  0  0  0  0  0  0  0  0  0
   -2.3591   -2.0464   -0.0031 C   0  0  0  0  0  0  0  0  0  0  0  0
    2.6733   -0.2756    1.2109 C   0  0  0  0  0  0  0  0  0  0  0  0
    2.6648   -0.2891   -1.2052 C   0  0  0  0  0  0  0  0  0  0  0  0
   -4.3887   -0.7323    0.0042 C   0  0  0  0  0  0  0  0  0  0  0  0
   -3.7523   -1.9742    0.0000 C   0  0  0  0  0  0  0  0  0  0  0  0
    4.0419   -0.5455    1.2076 C   0  0  0  0  0  0  0  0  0  0  0  0
    4.0333   -0.5591   -1.2084 C   0  0  0  0  0  0  0  0  0  0  0  0
    4.7217   -0.6873   -0.0019 C   0  0  0  0  0  0  0  0  0  0  0  0
   -4.1486    1.3993    0.0076 H   0  0  0  0  0  0  0  0  0  0  0  0
   -1.8715   -3.0175   -0.0063 H   0  0  0  0  0  0  0  0  0  0  0  0
    2.1569   -0.1681    2.1617 H   0  0  0  0  0  0  0  0  0  0  0  0
    2.1417   -0.1923   -2.1536 H   0  0  0  0  0  0  0  0  0  0  0  0
   -5.4737   -0.6798    0.0066 H   0  0  0  0  0  0  0  0  0  0  0  0
   -4.3427   -2.8859   -0.0007 H   0  0  0  0  0  0  0  0  0  0  0  0
    4.5780   -0.6454    2.1468 H   0  0  0  0  0  0  0  0  0  0  0  0
    4.5629   -0.6696   -2.1501 H   0  0  0  0  0  0  0  0  0  0  0  0
    5.7873   -0.8975   -0.0045 H   0  0  0  0  0  0  0  0  0  0  0  0
    1.7869    2.2485   -0.0164 H   0  0  0  0  0  0  0  0  0  0  0  0
  1  5  1  0  0  0  0
  1  6  1  0  0  0  0
  2  8  1  0  0  0  0
  2 28  1  0  0  0  0
  3  9  2  0  0  0  0
  4  6  1  0  0  0  0
  4  9  1  0  0  0  0
  4 10  2  0  0  0  0
  5  7  1  0  0  0  0
  5  8  2  0  0  0  0
  6 11  2  0  0  0  0
  7 12  2  0  0  0  0
  7 13  1  0  0  0  0
  8  9  1  0  0  0  0
 10 14  1  0  0  0  0
 10 19  1  0  0  0  0
 11 15  1  0  0  0  0
 11 20  1  0  0  0  0
 12 16  1  0  0  0  0
 12 21  1  0  0  0  0
 13 17  2  0  0  0  0
 13 22  1  0  0  0  0
 14 15  2  0  0  0  0
 14 23  1  0  0  0  0
 15 24  1  0  0  0  0
 16 18  2  0  0  0  0
 16 25  1  0  0  0  0
 17 18  1  0  0  0  0
 17 26  1  0  0  0  0
 18 27  1  0  0  0  0
M  END
> <PUBCHEM_COMPOUND_CID>
11349

> <PUBCHEM_CONFORMER_RMSD>
0.6

> <PUBCHEM_CONFORMER_DIVERSEORDER>
1

> <PUBCHEM_MMFF94_PARTIAL_CHARGES>
28
1 -0.16
10 -0.15
11 -0.15
12 -0.15
13 -0.15
14 -0.15
15 -0.15
16 -0.15
17 -0.15
18 -0.15
19 0.15
2 -0.53
20 0.15
21 0.15
22 0.15
23 0.15
24 0.15
25 0.15
26 0.15
27 0.15
28 0.45
3 -0.57
4 0.09
5 0.05
6 0.08
7 0.03
8 0.09
9 0.47

> <PUBCHEM_EFFECTIVE_ROTOR_COUNT>
1

> <PUBCHEM_PHARMACOPHORE_FEATURES>
6
1 1 acceptor
1 2 donor
1 3 acceptor
6 1 4 5 6 8 9 rings
6 4 6 10 11 14 15 rings
6 7 12 13 16 17 18 rings

> <PUBCHEM_HEAVY_ATOM_COUNT>
18

> <PUBCHEM_ATOM_DEF_STEREO_COUNT>
0

> <PUBCHEM_ATOM_UDEF_STEREO_COUNT>
0

> <PUBCHEM_BOND_DEF_STEREO_COUNT>
0

> <PUBCHEM_BOND_UDEF_STEREO_COUNT>
0

> <PUBCHEM_ISOTOPIC_ATOM_COUNT>
0

> <PUBCHEM_COMPONENT_COUNT>
1

> <PUBCHEM_CACTVS_TAUTO_COUNT>
2

> <PUBCHEM_CONFORMER_ID>
00002C5500000001

> <PUBCHEM_MMFF94_ENERGY>
54.9805

> <PUBCHEM_FEATURE_SELFOVERLAP>
30.474

> <PUBCHEM_SHAPE_FINGERPRINT>
10062212 137 18272653441713881459
10319926 262 18191610716564372194
10616163 171 18411134766252532622
10989021 7 18338234856139464009
11046707 91 18412545396926537427
11132069 177 18334293188753191163
11543360 7 15697717008816432747
12032990 46 18337668616578600135
12236239 1 17775566468442888426
12553582 1 18413107243073519707
12592029 89 14620526635225499200
13140716 1 18337951173992343971
13862211 1 18410860941229676671
14115302 16 17703785881951233450
14386348 63 17894909642053988622
15196674 1 18338797814956905637
15375462 189 18060142041530543251
15536298 74 18263926544508846273
15848700 24 18333736788382309855
16752209 62 18270974530349573939
16945 1 18410574015643574565
17804303 29 18408041801583545865
18222031 100 18261679164606905311
19049666 15 17605831649805954686
19141452 34 17749670706066449783
19862831 5 17632857520983691238
200 152 16630529552849183806
20028762 73 18043245731153695095
20510252 161 18188492491980134561
20871999 31 18411974788946239804
21029758 27 18201711847698925197
21033648 29 17023197049244086266
21065201 7 18336265760111470578
21267235 1 18339916039921071491
21634736 98 18271520879996069868
221490 88 18054219934664990891
2297311 6 18335409180196979350
2334 1 18050568448227906065
23366157 5 17914335675822882188
23402539 116 18335711554542555239
23557571 272 18188204403402419804
23559900 14 18189894400098131886
2748010 2 18194408797099139349
335352 9 18410574007380856925
43471831 8 18270685397119900170
474 4 17130692874441307060
5104073 3 18264200306568241435
573450 72 18200602509133053282
5902787 121 18339928112630639178
7364860 26 18117838789813238168
77492 1 17704067443375513442
81228 2 18337094774203040073
8809292 202 18342736274134496899
8863177 126 17628341685638684307
9709674 26 18051976922554898771

> <PUBCHEM_SHAPE_MULTIPOLES>
352.82
8.67
2.11
0.94
3
1.08
0
-3.84
0.01
-1.92
-0.01
1.14
-0.15
0.01

> <PUBCHEM_SHAPE_SELFOVERLAP>
787.672

> <PUBCHEM_SHAPE_VOLUME>
185.9

> <PUBCHEM_COORDINATE_TYPE>
2
5
10

$$$$

