4299
  -OEChem-06261200013D

 37 38  0     0  0  0  0  0  0999 V2000
   -5.2709   -0.5626   -1.6960 Cl  0  0  0  0  0  0  0  0  0  0  0  0
    1.3011   -1.5480    0.7156 S   0  0  0  0  0  0  0  0  0  0  0  0
    1.6664   -1.0198    2.0239 O   0  0  0  0  0  0  0  0  0  0  0  0
    1.3659   -2.9847    0.4834 O   0  0  0  0  0  0  0  0  0  0  0  0
    2.2424   -0.7602   -0.4736 N   0  0  0  0  0  0  0  0  0  0  0  0
    7.2202    0.8325    0.0785 N   0  0  0  0  0  0  0  0  0  0  0  0
    3.5765    1.2110   -1.0941 C   0  0  0  0  0  0  0  0  0  0  0  0
    2.2414    0.7075   -0.5544 C   0  0  0  0  0  0  0  0  0  0  0  0
    4.7616    0.7857   -0.2181 C   0  0  0  0  0  0  0  0  0  0  0  0
   -0.3165   -1.0179    0.3273 C   0  0  0  0  0  0  0  0  0  0  0  0
   -2.1260    0.5847    0.6032 C   0  0  0  0  0  0  0  0  0  0  0  0
   -0.8274    0.1441    0.9062 C   0  0  0  0  0  0  0  0  0  0  0  0
    6.1125    1.2330   -0.7806 C   0  0  0  0  0  0  0  0  0  0  0  0
   -2.9176   -0.1636   -0.3002 C   0  0  0  0  0  0  0  0  0  0  0  0
   -1.0950   -1.7538   -0.5611 C   0  0  0  0  0  0  0  0  0  0  0  0
   -2.3872   -1.3307   -0.8738 C   0  0  0  0  0  0  0  0  0  0  0  0
   -2.6560    1.7520    1.1766 C   0  0  0  0  0  0  0  0  0  0  0  0
   -4.2163    0.2770   -0.6032 C   0  0  0  0  0  0  0  0  0  0  0  0
   -3.9484    2.1750    0.8643 C   0  0  0  0  0  0  0  0  0  0  0  0
   -4.7269    1.4389   -0.0237 C   0  0  0  0  0  0  0  0  0  0  0  0
    3.5467    2.3046   -1.1660 H   0  0  0  0  0  0  0  0  0  0  0  0
    3.7256    0.8259   -2.1106 H   0  0  0  0  0  0  0  0  0  0  0  0
    2.0657    1.1483    0.4320 H   0  0  0  0  0  0  0  0  0  0  0  0
    1.4358    1.0257   -1.2241 H   0  0  0  0  0  0  0  0  0  0  0  0
    4.6270    1.2020    0.7886 H   0  0  0  0  0  0  0  0  0  0  0  0
    4.7754   -0.3058   -0.1094 H   0  0  0  0  0  0  0  0  0  0  0  0
    2.4252   -1.2581   -1.3538 H   0  0  0  0  0  0  0  0  0  0  0  0
   -0.2182    0.7220    1.5985 H   0  0  0  0  0  0  0  0  0  0  0  0
    6.2610    0.7978   -1.7748 H   0  0  0  0  0  0  0  0  0  0  0  0
    6.1236    2.3228   -0.8943 H   0  0  0  0  0  0  0  0  0  0  0  0
   -0.7146   -2.6572   -1.0296 H   0  0  0  0  0  0  0  0  0  0  0  0
   -2.9525   -1.9397   -1.5741 H   0  0  0  0  0  0  0  0  0  0  0  0
   -2.0655    2.3433    1.8733 H   0  0  0  0  0  0  0  0  0  0  0  0
   -4.3462    3.0795    1.3150 H   0  0  0  0  0  0  0  0  0  0  0  0
   -5.7313    1.7859   -0.2536 H   0  0  0  0  0  0  0  0  0  0  0  0
    7.1081    1.2524    1.0003 H   0  0  0  0  0  0  0  0  0  0  0  0
    8.0921    1.2005   -0.2998 H   0  0  0  0  0  0  0  0  0  0  0  0
  1 18  1  0  0  0  0
  2  3  2  0  0  0  0
  2  4  2  0  0  0  0
  2  5  1  0  0  0  0
  2 10  1  0  0  0  0
  5  8  1  0  0  0  0
  5 27  1  0  0  0  0
  6 13  1  0  0  0  0
  6 36  1  0  0  0  0
  6 37  1  0  0  0  0
  7  8  1  0  0  0  0
  7  9  1  0  0  0  0
  7 21  1  0  0  0  0
  7 22  1  0  0  0  0
  8 23  1  0  0  0  0
  8 24  1  0  0  0  0
  9 13  1  0  0  0  0
  9 25  1  0  0  0  0
  9 26  1  0  0  0  0
 10 12  2  0  0  0  0
 10 15  1  0  0  0  0
 11 12  1  0  0  0  0
 11 14  2  0  0  0  0
 11 17  1  0  0  0  0
 12 28  1  0  0  0  0
 13 29  1  0  0  0  0
 13 30  1  0  0  0  0
 14 16  1  0  0  0  0
 14 18  1  0  0  0  0
 15 16  2  0  0  0  0
 15 31  1  0  0  0  0
 16 32  1  0  0  0  0
 17 19  2  0  0  0  0
 17 33  1  0  0  0  0
 18 20  2  0  0  0  0
 19 20  1  0  0  0  0
 19 34  1  0  0  0  0
 20 35  1  0  0  0  0
M  END
> <PUBCHEM_COMPOUND_CID>
4299

> <PUBCHEM_CONFORMER_RMSD>
0.8

> <PUBCHEM_CONFORMER_DIVERSEORDER>
1
15
45
33
20
21
40
28
27
9
23
25
32
42
37
31
19
24
34
18
3
12
5
36
14
29
41
35
39
7
4
16
26
13
22
2
6
10
8
11
30
38
44
46
17
43

> <PUBCHEM_MMFF94_PARTIAL_CHARGES>
25
1 -0.18
10 -0.01
12 -0.15
13 0.27
15 -0.15
16 -0.15
17 -0.15
18 0.18
19 -0.15
2 1.45
20 -0.15
27 0.42
28 0.15
3 -0.65
31 0.15
32 0.15
33 0.15
34 0.15
35 0.15
36 0.36
37 0.36
4 -0.65
5 -0.91
6 -0.99
8 0.36

> <PUBCHEM_EFFECTIVE_ROTOR_COUNT>
6

> <PUBCHEM_PHARMACOPHORE_FEATURES>
7
1 3 acceptor
1 4 acceptor
1 5 donor
1 6 cation
1 6 donor
6 10 11 12 14 15 16 rings
6 11 14 17 18 19 20 rings

> <PUBCHEM_HEAVY_ATOM_COUNT>
20

> <PUBCHEM_ATOM_DEF_STEREO_COUNT>
0

> <PUBCHEM_ATOM_UDEF_STEREO_COUNT>
0

> <PUBCHEM_BOND_DEF_STEREO_COUNT>
0

> <PUBCHEM_BOND_UDEF_STEREO_COUNT>
0

> <PUBCHEM_ISOTOPIC_ATOM_COUNT>
0

> <PUBCHEM_COMPONENT_COUNT>
1

> <PUBCHEM_CACTVS_TAUTO_COUNT>
1

> <PUBCHEM_CONFORMER_ID>
000010CB00000001

> <PUBCHEM_MMFF94_ENERGY>
26.2563

> <PUBCHEM_FEATURE_SELFOVERLAP>
35.565

> <PUBCHEM_SHAPE_FINGERPRINT>
10382601 240 17846214514148561218
10498660 4 18113903796837863441
10670039 82 18335425677203637272
12236239 1 18411704309006659362
12633257 1 15410599359769755756
13177829 73 18410853266149245716
13288520 33 9367349223457893140
13631057 29 18129661868991941443
14251764 38 18117279147428136576
14341114 176 12463567366432550310
15183329 4 18409162239041022382
17780758 139 11600009829601089332
1813 80 17767977789396614994
19489759 90 17967530160381074564
200 152 5184357295811638636
20645476 183 18407762534478793679
20871999 31 17603302661424627137
2255824 54 18124878112415403387
22950370 63 9079122146447843156
23366157 5 17902509625613870671
23402539 116 18335983086933869092
23559900 14 17313110734753712872
23622692 88 10735884966903850323
2838139 119 18411416207196565756
351380 3 7997973457729653660
474 4 18131347497124839036
495365 180 15912778305329148115
6328613 192 18128243507993612404
633830 44 18056757857147896043
9981440 41 18411975845519192642

> <PUBCHEM_SHAPE_MULTIPOLES>
395.61
13.07
2.25
1.34
18.18
0.61
-0.12
-7.66
4.59
-0.55
-0.47
-0.45
0.11
-2.01

> <PUBCHEM_SHAPE_SELFOVERLAP>
806.408

> <PUBCHEM_SHAPE_VOLUME>
230.3

> <PUBCHEM_COORDINATE_TYPE>
2
5
10

$$$$

