17396374
  -OEChem-06241222562D

 38 39  0     0  0  0  0  0  0999 V2000
    8.9282    3.0000    0.0000 F   0  0  0  0  0  0  0  0  0  0  0  0
    8.5622    1.6340    0.0000 F   0  0  0  0  0  0  0  0  0  0  0  0
    7.5622    3.3660    0.0000 F   0  0  0  0  0  0  0  0  0  0  0  0
    2.8660   -2.5000    0.0000 O   0  0  0  0  0  0  0  0  0  0  0  0
    4.5981   -3.5000    0.0000 O   0  0  0  0  0  0  0  0  0  0  0  0
    7.1962    2.0000    0.0000 O   0  0  0  0  0  0  0  0  0  0  0  0
    3.7320    1.0000    0.0000 O   0  0  0  0  0  0  0  0  0  0  0  0
    5.4641    1.0000    0.0000 N   0  0  0  0  0  0  0  0  0  0  0  0
    4.5981   -0.5000    0.0000 C   0  0  0  0  0  0  0  0  0  0  0  0
    5.4641    2.0000    0.0000 C   0  0  0  0  0  0  0  0  0  0  0  0
    3.7320   -1.0000    0.0000 C   0  0  0  0  0  0  0  0  0  0  0  0
    4.5981    0.5000    0.0000 C   0  0  0  0  0  0  0  0  0  0  0  0
    3.7320   -2.0000    0.0000 C   0  0  0  0  0  0  0  0  0  0  0  0
    5.4641   -1.0000    0.0000 C   0  0  0  0  0  0  0  0  0  0  0  0
    4.5981   -2.5000    0.0000 C   0  0  0  0  0  0  0  0  0  0  0  0
    6.3301    2.5000    0.0000 C   0  0  0  0  0  0  0  0  0  0  0  0
    5.4641   -2.0000    0.0000 C   0  0  0  0  0  0  0  0  0  0  0  0
    4.5981    2.5000    0.0000 C   0  0  0  0  0  0  0  0  0  0  0  0
    6.3301    3.5000    0.0000 C   0  0  0  0  0  0  0  0  0  0  0  0
    4.5981    3.5000    0.0000 C   0  0  0  0  0  0  0  0  0  0  0  0
    5.4641    4.0000    0.0000 C   0  0  0  0  0  0  0  0  0  0  0  0
    2.0000   -2.0000    0.0000 C   0  0  0  0  0  0  0  0  0  0  0  0
    8.0622    2.5000    0.0000 C   0  0  0  0  0  0  0  0  0  0  0  0
    5.4641   -4.0000    0.0000 C   0  0  0  0  0  0  0  0  0  0  0  0
    3.1951   -0.6900    0.0000 H   0  0  0  0  0  0  0  0  0  0  0  0
    6.0010    0.6900    0.0000 H   0  0  0  0  0  0  0  0  0  0  0  0
    6.0010   -0.6900    0.0000 H   0  0  0  0  0  0  0  0  0  0  0  0
    6.0010   -2.3100    0.0000 H   0  0  0  0  0  0  0  0  0  0  0  0
    4.0611    2.1900    0.0000 H   0  0  0  0  0  0  0  0  0  0  0  0
    6.8671    3.8100    0.0000 H   0  0  0  0  0  0  0  0  0  0  0  0
    4.0611    3.8100    0.0000 H   0  0  0  0  0  0  0  0  0  0  0  0
    5.4641    4.6200    0.0000 H   0  0  0  0  0  0  0  0  0  0  0  0
    2.3100   -1.4631    0.0000 H   0  0  0  0  0  0  0  0  0  0  0  0
    1.4631   -1.6900    0.0000 H   0  0  0  0  0  0  0  0  0  0  0  0
    1.6900   -2.5369    0.0000 H   0  0  0  0  0  0  0  0  0  0  0  0
    5.1541   -4.5369    0.0000 H   0  0  0  0  0  0  0  0  0  0  0  0
    6.0010   -4.3100    0.0000 H   0  0  0  0  0  0  0  0  0  0  0  0
    5.7741   -3.4631    0.0000 H   0  0  0  0  0  0  0  0  0  0  0  0
  1 23  1  0  0  0  0
  2 23  1  0  0  0  0
  3 23  1  0  0  0  0
  4 13  1  0  0  0  0
  4 22  1  0  0  0  0
  5 15  1  0  0  0  0
  5 24  1  0  0  0  0
  6 16  1  0  0  0  0
  6 23  1  0  0  0  0
  7 12  2  0  0  0  0
  8 10  1  0  0  0  0
  8 12  1  0  0  0  0
  8 26  1  0  0  0  0
  9 11  2  0  0  0  0
  9 12  1  0  0  0  0
  9 14  1  0  0  0  0
 10 16  1  0  0  0  0
 10 18  2  0  0  0  0
 11 13  1  0  0  0  0
 11 25  1  0  0  0  0
 13 15  2  0  0  0  0
 14 17  2  0  0  0  0
 14 27  1  0  0  0  0
 15 17  1  0  0  0  0
 16 19  2  0  0  0  0
 17 28  1  0  0  0  0
 18 20  1  0  0  0  0
 18 29  1  0  0  0  0
 19 21  1  0  0  0  0
 19 30  1  0  0  0  0
 20 21  2  0  0  0  0
 20 31  1  0  0  0  0
 21 32  1  0  0  0  0
 22 33  1  0  0  0  0
 22 34  1  0  0  0  0
 22 35  1  0  0  0  0
 24 36  1  0  0  0  0
 24 37  1  0  0  0  0
 24 38  1  0  0  0  0
M  END
> <PUBCHEM_COMPOUND_CID>
17396374

> <PUBCHEM_COMPOUND_CANONICALIZED>
1

> <PUBCHEM_CACTVS_COMPLEXITY>
419

> <PUBCHEM_CACTVS_HBOND_ACCEPTOR>
7

> <PUBCHEM_CACTVS_HBOND_DONOR>
1

> <PUBCHEM_CACTVS_ROTATABLE_BOND>
5

> <PUBCHEM_CACTVS_SUBSKEYS>
AAADccB6OYAAAAAAAAAAAAAAAAAAAAAAAAAwYAAAAAAAAAABQAAAHwAQAAAADAyBmBIyxoLABACIAiVSUACCCAAlIgAIiAEH7MgPJjLEtZuFMSpk1BHa6Ye63BLOIAABAAAAUABAAAIAAACgAAAAAAAAAA==

> <PUBCHEM_IUPAC_OPENEYE_NAME>
3,4-dimethoxy-N-[2-(trifluoromethoxy)phenyl]benzamide

> <PUBCHEM_IUPAC_CAS_NAME>
3,4-dimethoxy-N-[2-(trifluoromethoxy)phenyl]benzamide

> <PUBCHEM_IUPAC_NAME>
3,4-dimethoxy-N-[2-(trifluoromethoxy)phenyl]benzamide

> <PUBCHEM_IUPAC_SYSTEMATIC_NAME>
3,4-dimethoxy-N-[2-(trifluoromethyloxy)phenyl]benzamide

> <PUBCHEM_IUPAC_TRADITIONAL_NAME>
3,4-dimethoxy-N-[2-(trifluoromethoxy)phenyl]benzamide

> <PUBCHEM_IUPAC_INCHI>
InChI=1S/C16H14F3NO4/c1-22-13-8-7-10(9-14(13)23-2)15(21)20-11-5-3-4-6-12(11)24-16(17,18)19/h3-9H,1-2H3,(H,20,21)

> <PUBCHEM_IUPAC_INCHIKEY>
BIRPZPUHKIIBMU-UHFFFAOYSA-N

> <PUBCHEM_XLOGP3_AA>
3.9

> <PUBCHEM_EXACT_MASS>
341.087493

> <PUBCHEM_MOLECULAR_FORMULA>
C16H14F3NO4

> <PUBCHEM_MOLECULAR_WEIGHT>
341.28187

> <PUBCHEM_OPENEYE_CAN_SMILES>
COC1=C(C=C(C=C1)C(=O)NC2=CC=CC=C2OC(F)(F)F)OC

> <PUBCHEM_OPENEYE_ISO_SMILES>
COC1=C(C=C(C=C1)C(=O)NC2=CC=CC=C2OC(F)(F)F)OC

> <PUBCHEM_CACTVS_TPSA>
56.8

> <PUBCHEM_MONOISOTOPIC_WEIGHT>
341.087493

> <PUBCHEM_TOTAL_CHARGE>
0

> <PUBCHEM_HEAVY_ATOM_COUNT>
24

> <PUBCHEM_ATOM_DEF_STEREO_COUNT>
0

> <PUBCHEM_ATOM_UDEF_STEREO_COUNT>
0

> <PUBCHEM_BOND_DEF_STEREO_COUNT>
0

> <PUBCHEM_BOND_UDEF_STEREO_COUNT>
0

> <PUBCHEM_ISOTOPIC_ATOM_COUNT>
0

> <PUBCHEM_COMPONENT_COUNT>
1

> <PUBCHEM_CACTVS_TAUTO_COUNT>
2

> <PUBCHEM_COORDINATE_TYPE>
1
5
255

> <PUBCHEM_BONDANNOTATIONS>
10  16  8
10  18  8
11  13  8
13  15  8
14  17  8
15  17  8
16  19  8
18  20  8
19  21  8
20  21  8
9  11  8
9  14  8

$$$$

