13290
  -OEChem-06261208362D

 39 39  0     0  0  0  0  0  0999 V2000
    5.4641    1.5600    0.0000 S   0  0  0  0  0  0  0  0  0  0  0  0
   10.6603   -1.4400    0.0000 O   0  0  0  0  0  0  0  0  0  0  0  0
    3.7320   -1.4400    0.0000 N   0  0  0  0  0  0  0  0  0  0  0  0
    7.1962   -1.4400    0.0000 N   0  0  0  0  0  0  0  0  0  0  0  0
    5.4641   -1.4400    0.0000 N   0  0  0  0  0  0  0  0  0  0  0  0
    4.5981    0.0600    0.0000 N   0  0  0  0  0  0  0  0  0  0  0  0
    6.3301    0.0600    0.0000 N   0  0  0  0  0  0  0  0  0  0  0  0
    2.8660   -0.9400    0.0000 C   0  0  0  0  0  0  0  0  0  0  0  0
    8.9282   -1.4400    0.0000 C   0  0  0  0  0  0  0  0  0  0  0  0
    8.0622   -0.9400    0.0000 C   0  0  0  0  0  0  0  0  0  0  0  0
    9.7942   -0.9400    0.0000 C   0  0  0  0  0  0  0  0  0  0  0  0
    2.0000   -1.4400    0.0000 C   0  0  0  0  0  0  0  0  0  0  0  0
    2.8660    0.0600    0.0000 C   0  0  0  0  0  0  0  0  0  0  0  0
    4.5981   -0.9400    0.0000 C   0  0  0  0  0  0  0  0  0  0  0  0
    6.3301   -0.9400    0.0000 C   0  0  0  0  0  0  0  0  0  0  0  0
    5.4641    0.5600    0.0000 C   0  0  0  0  0  0  0  0  0  0  0  0
   11.5263   -0.9400    0.0000 C   0  0  0  0  0  0  0  0  0  0  0  0
    6.3301    2.0600    0.0000 C   0  0  0  0  0  0  0  0  0  0  0  0
    3.4030   -0.6300    0.0000 H   0  0  0  0  0  0  0  0  0  0  0  0
    8.5297   -1.9150    0.0000 H   0  0  0  0  0  0  0  0  0  0  0  0
    9.3267   -1.9150    0.0000 H   0  0  0  0  0  0  0  0  0  0  0  0
    8.4607   -0.4651    0.0000 H   0  0  0  0  0  0  0  0  0  0  0  0
    7.6636   -0.4651    0.0000 H   0  0  0  0  0  0  0  0  0  0  0  0
    3.7320   -2.0600    0.0000 H   0  0  0  0  0  0  0  0  0  0  0  0
   10.1928   -0.4651    0.0000 H   0  0  0  0  0  0  0  0  0  0  0  0
    9.3957   -0.4651    0.0000 H   0  0  0  0  0  0  0  0  0  0  0  0
    7.1962   -2.0600    0.0000 H   0  0  0  0  0  0  0  0  0  0  0  0
    1.6900   -0.9031    0.0000 H   0  0  0  0  0  0  0  0  0  0  0  0
    3.4860    0.0600    0.0000 H   0  0  0  0  0  0  0  0  0  0  0  0
    2.8660    0.6800    0.0000 H   0  0  0  0  0  0  0  0  0  0  0  0
    2.2460    0.0600    0.0000 H   0  0  0  0  0  0  0  0  0  0  0  0
    1.4631   -1.7500    0.0000 H   0  0  0  0  0  0  0  0  0  0  0  0
    2.3100   -1.9769    0.0000 H   0  0  0  0  0  0  0  0  0  0  0  0
   11.8363   -1.4769    0.0000 H   0  0  0  0  0  0  0  0  0  0  0  0
   12.0632   -0.6300    0.0000 H   0  0  0  0  0  0  0  0  0  0  0  0
   11.2163   -0.4031    0.0000 H   0  0  0  0  0  0  0  0  0  0  0  0
    6.6401    1.5231    0.0000 H   0  0  0  0  0  0  0  0  0  0  0  0
    6.8671    2.3700    0.0000 H   0  0  0  0  0  0  0  0  0  0  0  0
    6.0201    2.5969    0.0000 H   0  0  0  0  0  0  0  0  0  0  0  0
  1 16  1  0  0  0  0
  1 18  1  0  0  0  0
  2 11  1  0  0  0  0
  2 17  1  0  0  0  0
  3  8  1  0  0  0  0
  3 14  1  0  0  0  0
  3 24  1  0  0  0  0
  4 10  1  0  0  0  0
  4 15  1  0  0  0  0
  4 27  1  0  0  0  0
  5 14  1  0  0  0  0
  5 15  2  0  0  0  0
  6 14  2  0  0  0  0
  6 16  1  0  0  0  0
  7 15  1  0  0  0  0
  7 16  2  0  0  0  0
  8 12  1  0  0  0  0
  8 13  1  0  0  0  0
  8 19  1  0  0  0  0
  9 10  1  0  0  0  0
  9 11  1  0  0  0  0
  9 20  1  0  0  0  0
  9 21  1  0  0  0  0
 10 22  1  0  0  0  0
 10 23  1  0  0  0  0
 11 25  1  0  0  0  0
 11 26  1  0  0  0  0
 12 28  1  0  0  0  0
 12 32  1  0  0  0  0
 12 33  1  0  0  0  0
 13 29  1  0  0  0  0
 13 30  1  0  0  0  0
 13 31  1  0  0  0  0
 17 34  1  0  0  0  0
 17 35  1  0  0  0  0
 17 36  1  0  0  0  0
 18 37  1  0  0  0  0
 18 38  1  0  0  0  0
 18 39  1  0  0  0  0
M  END
> <PUBCHEM_COMPOUND_CID>
13290

> <PUBCHEM_COMPOUND_CANONICALIZED>
1

> <PUBCHEM_CACTVS_COMPLEXITY>
220

> <PUBCHEM_CACTVS_HBOND_ACCEPTOR>
7

> <PUBCHEM_CACTVS_HBOND_DONOR>
2

> <PUBCHEM_CACTVS_ROTATABLE_BOND>
8

> <PUBCHEM_CACTVS_SUBSKEYS>
AAADceBzoABAAAAAAAAAAAAAAAAAAAAAAAAsAAAAAAAAAAABgAAAHgQQAAAACCjhgAaDEAbIFAggAAAAJAAAUAlAAIABAIAIAACACAAACAAEAAAKEAIAAAAAAAAAAAAAAAAAAAAAAAAAAAAAAAAAAAAAAA==

> <PUBCHEM_IUPAC_OPENEYE_NAME>
N2-isopropyl-N4-(3-methoxypropyl)-6-methylsulfanyl-1,3,5-triazine-2,4-diamine

> <PUBCHEM_IUPAC_CAS_NAME>
N4-(3-methoxypropyl)-6-(methylthio)-N2-propan-2-yl-1,3,5-triazine-2,4-diamine

> <PUBCHEM_IUPAC_NAME>
4-N-(3-methoxypropyl)-6-methylsulfanyl-2-N-propan-2-yl-1,3,5-triazine-2,4-diamine

> <PUBCHEM_IUPAC_SYSTEMATIC_NAME>
N4-(3-methoxypropyl)-6-methylsulfanyl-N2-propan-2-yl-1,3,5-triazine-2,4-diamine

> <PUBCHEM_IUPAC_TRADITIONAL_NAME>
isopropyl-[4-(3-methoxypropylamino)-6-(methylthio)-s-triazin-2-yl]amine

> <PUBCHEM_IUPAC_INCHI>
InChI=1S/C11H21N5OS/c1-8(2)13-10-14-9(12-6-5-7-17-3)15-11(16-10)18-4/h8H,5-7H2,1-4H3,(H2,12,13,14,15,16)

> <PUBCHEM_IUPAC_INCHIKEY>
DDUIUBPJPOKOMV-UHFFFAOYSA-N

> <PUBCHEM_XLOGP3>
2.8

> <PUBCHEM_EXACT_MASS>
271.146681

> <PUBCHEM_MOLECULAR_FORMULA>
C11H21N5OS

> <PUBCHEM_MOLECULAR_WEIGHT>
271.38234

> <PUBCHEM_OPENEYE_CAN_SMILES>
CC(C)NC1=NC(=NC(=N1)NCCCOC)SC

> <PUBCHEM_OPENEYE_ISO_SMILES>
CC(C)NC1=NC(=NC(=N1)NCCCOC)SC

> <PUBCHEM_CACTVS_TPSA>
97.3

> <PUBCHEM_MONOISOTOPIC_WEIGHT>
271.146681

> <PUBCHEM_TOTAL_CHARGE>
0

> <PUBCHEM_HEAVY_ATOM_COUNT>
18

> <PUBCHEM_ATOM_DEF_STEREO_COUNT>
0

> <PUBCHEM_ATOM_UDEF_STEREO_COUNT>
0

> <PUBCHEM_BOND_DEF_STEREO_COUNT>
0

> <PUBCHEM_BOND_UDEF_STEREO_COUNT>
0

> <PUBCHEM_ISOTOPIC_ATOM_COUNT>
0

> <PUBCHEM_COMPONENT_COUNT>
1

> <PUBCHEM_CACTVS_TAUTO_COUNT>
9

> <PUBCHEM_COORDINATE_TYPE>
1
5
255

> <PUBCHEM_BONDANNOTATIONS>
5  14  8
5  15  8
6  14  8
6  16  8
7  15  8
7  16  8

$$$$

