47205457
  -OEChem-06241222582D

 28 29  0     0  0  0  0  0  0999 V2000
    2.0570   -0.4042    0.0000 O   0  0  0  0  0  0  0  0  0  0  0  0
    4.1349    3.0784    0.0000 O   0  0  0  0  0  0  0  0  0  0  0  0
    4.9483    1.2514    0.0000 O   0  0  0  0  0  0  0  0  0  0  0  0
    3.5471    2.2694    0.0000 N   0  0  0  0  0  0  0  0  0  0  0  0
    2.3660    0.5469    0.0000 N   0  0  0  0  0  0  0  0  0  0  0  0
    3.7320   -3.4920    0.0000 N   0  0  0  0  0  0  0  0  0  0  0  0
    2.8660   -0.9920    0.0000 C   0  0  0  0  0  0  0  0  0  0  0  0
    3.3660    0.5469    0.0000 C   0  0  0  0  0  0  0  0  0  0  0  0
    2.8660   -1.9920    0.0000 C   0  0  0  0  0  0  0  0  0  0  0  0
    3.6750   -0.4042    0.0000 C   0  0  0  0  0  0  0  0  0  0  0  0
    3.9538    1.3559    0.0000 C   0  0  0  0  0  0  0  0  0  0  0  0
    2.0000   -2.4920    0.0000 C   0  0  0  0  0  0  0  0  0  0  0  0
    3.7320   -2.4920    0.0000 C   0  0  0  0  0  0  0  0  0  0  0  0
    2.5526    2.3739    0.0000 C   0  0  0  0  0  0  0  0  0  0  0  0
    2.0000   -3.4920    0.0000 C   0  0  0  0  0  0  0  0  0  0  0  0
    2.8660   -3.9920    0.0000 C   0  0  0  0  0  0  0  0  0  0  0  0
    3.7281    3.9920    0.0000 C   0  0  0  0  0  0  0  0  0  0  0  0
    4.2647   -0.5958    0.0000 H   0  0  0  0  0  0  0  0  0  0  0  0
    1.4631   -2.1820    0.0000 H   0  0  0  0  0  0  0  0  0  0  0  0
    4.2690   -2.1820    0.0000 H   0  0  0  0  0  0  0  0  0  0  0  0
    2.6174    2.9906    0.0000 H   0  0  0  0  0  0  0  0  0  0  0  0
    1.9360    2.4388    0.0000 H   0  0  0  0  0  0  0  0  0  0  0  0
    2.4877    1.7574    0.0000 H   0  0  0  0  0  0  0  0  0  0  0  0
    1.4631   -3.8020    0.0000 H   0  0  0  0  0  0  0  0  0  0  0  0
    2.8660   -4.6120    0.0000 H   0  0  0  0  0  0  0  0  0  0  0  0
    4.2945    4.2442    0.0000 H   0  0  0  0  0  0  0  0  0  0  0  0
    3.4760    4.5584    0.0000 H   0  0  0  0  0  0  0  0  0  0  0  0
    3.1617    3.7398    0.0000 H   0  0  0  0  0  0  0  0  0  0  0  0
  1  5  1  0  0  0  0
  1  7  1  0  0  0  0
  2  4  1  0  0  0  0
  2 17  1  0  0  0  0
  3 11  2  0  0  0  0
  4 11  1  0  0  0  0
  4 14  1  0  0  0  0
  5  8  2  0  0  0  0
  6 13  1  0  0  0  0
  6 16  2  0  0  0  0
  7  9  1  0  0  0  0
  7 10  2  0  0  0  0
  8 10  1  0  0  0  0
  8 11  1  0  0  0  0
  9 12  1  0  0  0  0
  9 13  2  0  0  0  0
 10 18  1  0  0  0  0
 12 15  2  0  0  0  0
 12 19  1  0  0  0  0
 13 20  1  0  0  0  0
 14 21  1  0  0  0  0
 14 22  1  0  0  0  0
 14 23  1  0  0  0  0
 15 16  1  0  0  0  0
 15 24  1  0  0  0  0
 16 25  1  0  0  0  0
 17 26  1  0  0  0  0
 17 27  1  0  0  0  0
 17 28  1  0  0  0  0
M  END
> <PUBCHEM_COMPOUND_CID>
47205457

> <PUBCHEM_COMPOUND_CANONICALIZED>
1

> <PUBCHEM_CACTVS_COMPLEXITY>
275

> <PUBCHEM_CACTVS_HBOND_ACCEPTOR>
5

> <PUBCHEM_CACTVS_HBOND_DONOR>
0

> <PUBCHEM_CACTVS_ROTATABLE_BOND>
3

> <PUBCHEM_CACTVS_SUBSKEYS>
AAADccBzMAAAAAAAAAAAAAAAAAAAAWAAAAAsAAAAAAAAAAAB4AAAHgAEAAAADAzBngY+hJIYEACpA7V3VgCCgCA3IiAo2CG+bNoIZvrAlZOUMYhmwhnIyce/mYKOAAAAAAAAAAAAAAAAAAAAAAAAAAAAAA==

> <PUBCHEM_IUPAC_OPENEYE_NAME>
N-methoxy-N-methyl-5-(3-pyridyl)isoxazole-3-carboxamide

> <PUBCHEM_IUPAC_CAS_NAME>
N-methoxy-N-methyl-5-(3-pyridinyl)-3-isoxazolecarboxamide

> <PUBCHEM_IUPAC_NAME>
N-methoxy-N-methyl-5-pyridin-3-yl-1,2-oxazole-3-carboxamide

> <PUBCHEM_IUPAC_SYSTEMATIC_NAME>
N-methoxy-N-methyl-5-pyridin-3-yl-1,2-oxazole-3-carboxamide

> <PUBCHEM_IUPAC_TRADITIONAL_NAME>
N-methoxy-N-methyl-5-(3-pyridyl)isoxazole-3-carboxamide

> <PUBCHEM_IUPAC_INCHI>
InChI=1S/C11H11N3O3/c1-14(16-2)11(15)9-6-10(17-13-9)8-4-3-5-12-7-8/h3-7H,1-2H3

> <PUBCHEM_IUPAC_INCHIKEY>
SSXFQMOZQVKXQU-UHFFFAOYSA-N

> <PUBCHEM_XLOGP3_AA>
0.8

> <PUBCHEM_EXACT_MASS>
233.080041

> <PUBCHEM_MOLECULAR_FORMULA>
C11H11N3O3

> <PUBCHEM_MOLECULAR_WEIGHT>
233.22334

> <PUBCHEM_OPENEYE_CAN_SMILES>
CN(C(=O)C1=NOC(=C1)C2=CN=CC=C2)OC

> <PUBCHEM_OPENEYE_ISO_SMILES>
CN(C(=O)C1=NOC(=C1)C2=CN=CC=C2)OC

> <PUBCHEM_CACTVS_TPSA>
68.5

> <PUBCHEM_MONOISOTOPIC_WEIGHT>
233.080041

> <PUBCHEM_TOTAL_CHARGE>
0

> <PUBCHEM_HEAVY_ATOM_COUNT>
17

> <PUBCHEM_ATOM_DEF_STEREO_COUNT>
0

> <PUBCHEM_ATOM_UDEF_STEREO_COUNT>
0

> <PUBCHEM_BOND_DEF_STEREO_COUNT>
0

> <PUBCHEM_BOND_UDEF_STEREO_COUNT>
0

> <PUBCHEM_ISOTOPIC_ATOM_COUNT>
0

> <PUBCHEM_COMPONENT_COUNT>
1

> <PUBCHEM_CACTVS_TAUTO_COUNT>
1

> <PUBCHEM_COORDINATE_TYPE>
1
5
255

> <PUBCHEM_BONDANNOTATIONS>
1  5  8
1  7  8
12  15  8
15  16  8
5  8  8
6  13  8
6  16  8
7  10  8
8  10  8
9  12  8
9  13  8

$$$$

