10251
  -OEChem-06261204233D

 29 31  0     1  0  0  0  0  0999 V2000
    0.1702   -0.8978   -0.0649 O   0  0  0  0  0  0  0  0  0  0  0  0
    1.9025    2.8109   -0.3390 O   0  0  0  0  0  0  0  0  0  0  0  0
   -0.5430    0.2778    0.3497 C   0  0  1  0  0  0  0  0  0  0  0  0
   -0.1024    1.4985   -0.4557 C   0  0  0  0  0  0  0  0  0  0  0  0
   -2.0261    0.0211    0.1846 C   0  0  0  0  0  0  0  0  0  0  0  0
    1.3775    1.7063   -0.2638 C   0  0  0  0  0  0  0  0  0  0  0  0
    2.1794    0.4841   -0.0491 C   0  0  0  0  0  0  0  0  0  0  0  0
    1.5311   -0.7527    0.0160 C   0  0  0  0  0  0  0  0  0  0  0  0
   -2.9376    0.6123    1.0593 C   0  0  0  0  0  0  0  0  0  0  0  0
   -2.4804   -0.8066   -0.8418 C   0  0  0  0  0  0  0  0  0  0  0  0
    3.5715    0.5571    0.0446 C   0  0  0  0  0  0  0  0  0  0  0  0
    2.2807   -1.9231    0.1412 C   0  0  0  0  0  0  0  0  0  0  0  0
    4.3143   -0.6152    0.1904 C   0  0  0  0  0  0  0  0  0  0  0  0
    3.6711   -1.8527    0.2336 C   0  0  0  0  0  0  0  0  0  0  0  0
   -4.3038    0.3756    0.9075 C   0  0  0  0  0  0  0  0  0  0  0  0
   -3.8466   -1.0433   -0.9937 C   0  0  0  0  0  0  0  0  0  0  0  0
   -4.7583   -0.4522   -0.1189 C   0  0  0  0  0  0  0  0  0  0  0  0
   -0.3363    0.4247    1.4203 H   0  0  0  0  0  0  0  0  0  0  0  0
   -0.6323    2.3950   -0.1154 H   0  0  0  0  0  0  0  0  0  0  0  0
   -0.2832    1.3656   -1.5289 H   0  0  0  0  0  0  0  0  0  0  0  0
   -2.5958    1.2606    1.8617 H   0  0  0  0  0  0  0  0  0  0  0  0
   -1.7926   -1.2686   -1.5447 H   0  0  0  0  0  0  0  0  0  0  0  0
    4.0924    1.5091   -0.0039 H   0  0  0  0  0  0  0  0  0  0  0  0
    1.7893   -2.8917    0.1781 H   0  0  0  0  0  0  0  0  0  0  0  0
    5.3970   -0.5651    0.2615 H   0  0  0  0  0  0  0  0  0  0  0  0
    4.2541   -2.7630    0.3396 H   0  0  0  0  0  0  0  0  0  0  0  0
   -5.0138    0.8364    1.5881 H   0  0  0  0  0  0  0  0  0  0  0  0
   -4.2011   -1.6853   -1.7949 H   0  0  0  0  0  0  0  0  0  0  0  0
   -5.8221   -0.6358   -0.2378 H   0  0  0  0  0  0  0  0  0  0  0  0
  1  3  1  0  0  0  0
  1  8  1  0  0  0  0
  2  6  2  0  0  0  0
  3  4  1  0  0  0  0
  3  5  1  0  0  0  0
  3 18  1  0  0  0  0
  4  6  1  0  0  0  0
  4 19  1  0  0  0  0
  4 20  1  0  0  0  0
  5  9  2  0  0  0  0
  5 10  1  0  0  0  0
  6  7  1  0  0  0  0
  7  8  1  0  0  0  0
  7 11  2  0  0  0  0
  8 12  2  0  0  0  0
  9 15  1  0  0  0  0
  9 21  1  0  0  0  0
 10 16  2  0  0  0  0
 10 22  1  0  0  0  0
 11 13  1  0  0  0  0
 11 23  1  0  0  0  0
 12 14  1  0  0  0  0
 12 24  1  0  0  0  0
 13 14  2  0  0  0  0
 13 25  1  0  0  0  0
 14 26  1  0  0  0  0
 15 17  2  0  0  0  0
 15 27  1  0  0  0  0
 16 17  1  0  0  0  0
 16 28  1  0  0  0  0
 17 29  1  0  0  0  0
M  END
> <PUBCHEM_COMPOUND_CID>
10251

> <PUBCHEM_CONFORMER_RMSD>
0.6

> <PUBCHEM_CONFORMER_DIVERSEORDER>
1
3
4
2
5

> <PUBCHEM_MMFF94_PARTIAL_CHARGES>
26
1 -0.36
10 -0.15
11 -0.15
12 -0.15
13 -0.15
14 -0.15
15 -0.15
16 -0.15
17 -0.15
2 -0.57
21 0.15
22 0.15
23 0.15
24 0.15
25 0.15
26 0.15
27 0.15
28 0.15
29 0.15
3 0.42
4 0.06
5 -0.14
6 0.42
7 0.09
8 0.08
9 -0.15

> <PUBCHEM_EFFECTIVE_ROTOR_COUNT>
1.6

> <PUBCHEM_PHARMACOPHORE_FEATURES>
5
1 1 acceptor
1 2 acceptor
6 1 3 4 6 7 8 rings
6 5 9 10 15 16 17 rings
6 7 8 11 12 13 14 rings

> <PUBCHEM_HEAVY_ATOM_COUNT>
17

> <PUBCHEM_ATOM_DEF_STEREO_COUNT>
0

> <PUBCHEM_ATOM_UDEF_STEREO_COUNT>
1

> <PUBCHEM_BOND_DEF_STEREO_COUNT>
0

> <PUBCHEM_BOND_UDEF_STEREO_COUNT>
0

> <PUBCHEM_ISOTOPIC_ATOM_COUNT>
0

> <PUBCHEM_COMPONENT_COUNT>
1

> <PUBCHEM_CACTVS_TAUTO_COUNT>
2

> <PUBCHEM_CONFORMER_ID>
0000280B00000001

> <PUBCHEM_MMFF94_ENERGY>
49.1656

> <PUBCHEM_FEATURE_SELFOVERLAP>
25.401

> <PUBCHEM_SHAPE_FINGERPRINT>
10062212 137 18113339691701587783
10616163 171 18115026290799146095
11471102 20 18342458123361947596
11578080 2 17897474806935002905
11806522 49 18410014320937824970
12107183 9 17539116668529840283
12236239 1 18113899351767920107
12251169 10 18334010609869639159
12553582 1 18340772653683611338
12670546 56 17895199895933263801
13134695 92 18272371970884425852
13140716 1 18197219140219231520
13167823 11 18260267438826476983
13760787 5 18273209803092142060
13862211 1 18341617053366172570
14251717 144 18412547595865422934
14252887 29 18262232330730366658
14289901 80 15502377820038059447
14576447 43 18263088733939211111
15196674 1 18411701031967711488
15375462 189 18410292536023776226
15442244 35 18336824294453435265
15536298 74 18260549996076696624
15848700 24 18341333370506700662
15848702 151 18335982059983004559
16945 1 18342174440935655004
17357779 13 17917724512525049221
1813 80 18339347682302800414
18186145 218 17489873726314973225
19050596 39 18186516592760613891
19422 9 18260829263714608247
200 152 18333739005144460735
20612939 158 18342737377608750292
20645477 70 18201442432689454413
20871998 22 18263920123938855790
21267235 1 18409158944047121862
21641784 216 17774141531554458404
221490 88 18198900314582982483
2255824 54 18339075987051115772
22646028 1 18187367627513616827
22646028 28 18333734611108333655
23402539 116 18338804523664342426
23463225 33 18334856121426471151
23557571 272 15213566927833320873
23559900 14 18336272253521500843
2748010 2 18196102264080940676
2871803 45 18130227163606700178
474 4 18195811769246004112
5104073 3 18333730200314045571
573450 72 17748827423602431803
602551 16 15502949510413485159
7364860 26 18336548214203685128
77492 1 18113333085941497213
83771 10 18411420652291894952
84936 182 17899133815140824576
9709674 26 18410005516519209935
9971528 1 18408606967966899656
9981440 41 17399247347499662617

> <PUBCHEM_SHAPE_MULTIPOLES>
338.11
8.93
1.98
0.87
4.19
0.68
-0.02
-2.67
-0.66
-1.83
0.25
0.71
-0.01
-0.87

> <PUBCHEM_SHAPE_SELFOVERLAP>
746.682

> <PUBCHEM_SHAPE_VOLUME>
180.4

> <PUBCHEM_COORDINATE_TYPE>
2
5
10

$$$$

