17395834
  -OEChem-06241222523D

 47 49  0     0  0  0  0  0  0999 V2000
   -3.3944   -0.8324    1.6556 O   0  0  0  0  0  0  0  0  0  0  0  0
   -3.0193    2.3960   -1.6039 O   0  0  0  0  0  0  0  0  0  0  0  0
    1.9601   -0.5606   -0.8195 O   0  0  0  0  0  0  0  0  0  0  0  0
   -4.6530    0.8017   -1.1367 N   0  0  0  0  0  0  0  0  0  0  0  0
   -2.8609    0.8966    0.1844 N   0  0  0  0  0  0  0  0  0  0  0  0
    3.3061    0.6572    0.6708 N   0  0  0  0  0  0  0  0  0  0  0  0
   -4.8960   -0.2478   -0.1777 C   0  0  0  0  0  0  0  0  0  0  0  0
   -5.0218   -1.6330   -0.8222 C   0  0  0  0  0  0  0  0  0  0  0  0
   -6.1692   -0.0154    0.6392 C   0  0  0  0  0  0  0  0  0  0  0  0
   -6.4363   -2.0990   -0.4877 C   0  0  0  0  0  0  0  0  0  0  0  0
   -6.7510   -1.4100    0.8291 C   0  0  0  0  0  0  0  0  0  0  0  0
   -3.6379   -0.1255    0.6858 C   0  0  0  0  0  0  0  0  0  0  0  0
   -3.4492    1.4741   -0.9227 C   0  0  0  0  0  0  0  0  0  0  0  0
   -1.5877    1.2995    0.7478 C   0  0  0  0  0  0  0  0  0  0  0  0
   -0.4098    0.5636    0.1180 C   0  0  0  0  0  0  0  0  0  0  0  0
    0.9312    0.9743    0.7272 C   0  0  0  0  0  0  0  0  0  0  0  0
    2.1093    0.2529    0.0862 C   0  0  0  0  0  0  0  0  0  0  0  0
    4.6133    0.2183    0.3526 C   0  0  0  0  0  0  0  0  0  0  0  0
    5.7094    0.7330    1.0450 C   0  0  0  0  0  0  0  0  0  0  0  0
    4.8059   -0.7287   -0.6534 C   0  0  0  0  0  0  0  0  0  0  0  0
    7.1905   -0.6463   -0.2744 C   0  0  0  0  0  0  0  0  0  0  0  0
    6.9979    0.3008    0.7316 C   0  0  0  0  0  0  0  0  0  0  0  0
    6.0944   -1.1608   -0.9668 C   0  0  0  0  0  0  0  0  0  0  0  0
    8.5685   -1.1085   -0.6083 C   0  0  0  0  0  0  0  0  0  0  0  0
   -4.2970   -2.3388   -0.3990 H   0  0  0  0  0  0  0  0  0  0  0  0
   -4.8684   -1.6191   -1.9069 H   0  0  0  0  0  0  0  0  0  0  0  0
   -6.8840    0.6022    0.0805 H   0  0  0  0  0  0  0  0  0  0  0  0
   -5.9891    0.4752    1.6015 H   0  0  0  0  0  0  0  0  0  0  0  0
   -7.1338   -1.7628   -1.2643 H   0  0  0  0  0  0  0  0  0  0  0  0
   -6.5074   -3.1881   -0.4164 H   0  0  0  0  0  0  0  0  0  0  0  0
   -6.2478   -1.9231    1.6571 H   0  0  0  0  0  0  0  0  0  0  0  0
   -7.8237   -1.3864    1.0408 H   0  0  0  0  0  0  0  0  0  0  0  0
   -5.2882    1.0299   -1.8953 H   0  0  0  0  0  0  0  0  0  0  0  0
   -1.6094    1.1072    1.8264 H   0  0  0  0  0  0  0  0  0  0  0  0
   -1.4710    2.3784    0.5943 H   0  0  0  0  0  0  0  0  0  0  0  0
   -0.3973    0.7520   -0.9633 H   0  0  0  0  0  0  0  0  0  0  0  0
   -0.5495   -0.5190    0.2342 H   0  0  0  0  0  0  0  0  0  0  0  0
    1.0807    2.0536    0.6026 H   0  0  0  0  0  0  0  0  0  0  0  0
    0.9348    0.7532    1.8012 H   0  0  0  0  0  0  0  0  0  0  0  0
    3.2535    1.3483    1.4163 H   0  0  0  0  0  0  0  0  0  0  0  0
    5.5732    1.4711    1.8314 H   0  0  0  0  0  0  0  0  0  0  0  0
    4.0087   -1.1732   -1.2322 H   0  0  0  0  0  0  0  0  0  0  0  0
    7.8437    0.7077    1.2794 H   0  0  0  0  0  0  0  0  0  0  0  0
    6.2328   -1.9005   -1.7511 H   0  0  0  0  0  0  0  0  0  0  0  0
    9.3042   -0.3161   -0.4335 H   0  0  0  0  0  0  0  0  0  0  0  0
    8.6462   -1.3900   -1.6641 H   0  0  0  0  0  0  0  0  0  0  0  0
    8.8333   -1.9748    0.0059 H   0  0  0  0  0  0  0  0  0  0  0  0
  1 12  2  0  0  0  0
  2 13  2  0  0  0  0
  3 17  2  0  0  0  0
  4  7  1  0  0  0  0
  4 13  1  0  0  0  0
  4 33  1  0  0  0  0
  5 12  1  0  0  0  0
  5 13  1  0  0  0  0
  5 14  1  0  0  0  0
  6 17  1  0  0  0  0
  6 18  1  0  0  0  0
  6 40  1  0  0  0  0
  7  8  1  0  0  0  0
  7  9  1  0  0  0  0
  7 12  1  0  0  0  0
  8 10  1  0  0  0  0
  8 25  1  0  0  0  0
  8 26  1  0  0  0  0
  9 11  1  0  0  0  0
  9 27  1  0  0  0  0
  9 28  1  0  0  0  0
 10 11  1  0  0  0  0
 10 29  1  0  0  0  0
 10 30  1  0  0  0  0
 11 31  1  0  0  0  0
 11 32  1  0  0  0  0
 14 15  1  0  0  0  0
 14 34  1  0  0  0  0
 14 35  1  0  0  0  0
 15 16  1  0  0  0  0
 15 36  1  0  0  0  0
 15 37  1  0  0  0  0
 16 17  1  0  0  0  0
 16 38  1  0  0  0  0
 16 39  1  0  0  0  0
 18 19  2  0  0  0  0
 18 20  1  0  0  0  0
 19 22  1  0  0  0  0
 19 41  1  0  0  0  0
 20 23  2  0  0  0  0
 20 42  1  0  0  0  0
 21 22  2  0  0  0  0
 21 23  1  0  0  0  0
 21 24  1  0  0  0  0
 22 43  1  0  0  0  0
 23 44  1  0  0  0  0
 24 45  1  0  0  0  0
 24 46  1  0  0  0  0
 24 47  1  0  0  0  0
M  END
> <PUBCHEM_COMPOUND_CID>
17395834

> <PUBCHEM_CONFORMER_RMSD>
0.8

> <PUBCHEM_CONFORMER_DIVERSEORDER>
2
73
48
4
71
61
66
43
74
59
57
53
82
35
25
42
70
38
84
1
14
80
54
17
33
24
22
11
36
56
29
23
67
49
9
69
41
37
65
8
39
12
45
78
55
13
79
40
58
51
64
32
26
27
20
7
34
52
44
15
83
3
47
62
76
77
75
30
10
81
31
60
63
5
21
16
6
68
18
19
50
28
72
46

> <PUBCHEM_MMFF94_PARTIAL_CHARGES>
25
1 -0.57
12 0.57
13 0.69
14 0.3
16 0.06
17 0.57
18 0.12
19 -0.15
2 -0.57
20 -0.15
21 -0.14
22 -0.15
23 -0.15
24 0.14
3 -0.57
33 0.37
4 -0.73
40 0.37
41 0.15
42 0.15
43 0.15
44 0.15
5 -0.42
6 -0.55
7 0.36

> <PUBCHEM_EFFECTIVE_ROTOR_COUNT>
7.2

> <PUBCHEM_PHARMACOPHORE_FEATURES>
8
1 1 acceptor
1 2 acceptor
1 3 acceptor
1 4 donor
1 6 donor
5 4 5 7 12 13 rings
5 7 8 9 10 11 rings
6 18 19 20 21 22 23 rings

> <PUBCHEM_HEAVY_ATOM_COUNT>
24

> <PUBCHEM_ATOM_DEF_STEREO_COUNT>
0

> <PUBCHEM_ATOM_UDEF_STEREO_COUNT>
0

> <PUBCHEM_BOND_DEF_STEREO_COUNT>
0

> <PUBCHEM_BOND_UDEF_STEREO_COUNT>
0

> <PUBCHEM_ISOTOPIC_ATOM_COUNT>
0

> <PUBCHEM_COMPONENT_COUNT>
1

> <PUBCHEM_CACTVS_TAUTO_COUNT>
4

> <PUBCHEM_CONFORMER_ID>
0109707A00000002

> <PUBCHEM_MMFF94_ENERGY>
51.5296

> <PUBCHEM_FEATURE_SELFOVERLAP>
40.608

> <PUBCHEM_SHAPE_FINGERPRINT>
10 15 14490189392902555098
10066227 112 11671776066507112726
10299344 5 16081089277587282636
10670039 82 17203332229582186797
11315181 36 18409728465469343761
11524674 6 16877662340602766255
11991303 11 15625935396265477723
12166972 35 18413106143741772548
125118 31 9151167667570455634
12516196 113 18334858311965631664
12616971 3 15502663671750423552
13288520 33 18273216387857508677
13668630 136 18261109677760543650
13673619 4 18410012109531171969
13685833 64 18040714766685178752
13885169 127 18187362164600397657
1420 363 18113899368731576408
14251764 18 16660647341308708972
14556957 393 16487250002158227583
14729087 3 9655578504377191642
14849402 71 14852184866813337562
15142383 8 10231756683146961342
15183329 4 15841834456340186618
15348495 7 7853273355495678284
15352257 5 18187363229509765158
15419008 47 18410862066195117016
15419008 91 18264228992133396416
15716309 27 17240201032278693976
1577012 14 16415485994725773452
17093844 174 18260267460960657953
17780758 139 17022901242726321347
17844677 252 18333446556463713472
18335252 98 18260829277031877282
18643901 69 18413672396999090415
18927931 339 17988924458013894739
19489759 90 17918275376219030672
2026 5 18267020734372686242
20281389 69 8502382117684510570
21150785 3 17203324507795191942
21267235 1 18408319977793355584
21307412 95 18128544769937454567
21521721 280 16660370243077915522
21623969 137 17530961393518693262
22288116 15 15195278682567800779
2297311 6 18202002131790878793
2303208 19 18333168384184399988
23035841 295 18113617880553517811
23081809 10 16845297189378879536
23198884 109 15841552972704937195
23522609 53 18045750499597112649
23559900 14 17345468185470696869
3178227 256 17022621966725399882
34797466 226 18342734092681578380
44880568 143 18201720682568629116
504579 68 16415477156184030362
636775 8 17274812520645866891
9953998 17 5400795055785140418
999808 66 18114179722579573671

> <PUBCHEM_SHAPE_MULTIPOLES>
461.36
24.85
1.71
1.19
24.62
0.18
0.1
11.74
-0.13
-1.88
0.45
-0.92
-0.25
1.81

> <PUBCHEM_SHAPE_SELFOVERLAP>
977.081

> <PUBCHEM_SHAPE_VOLUME>
261.2

> <PUBCHEM_COORDINATE_TYPE>
2
5
10

$$$$

