47205570
  -OEChem-06241222592D

 38 39  0     1  0  0  0  0  0999 V2000
    5.3147    4.1012    0.0000 F   0  0  0  0  0  0  0  0  0  0  0  0
    6.3147    3.1012    0.0000 F   0  0  0  0  0  0  0  0  0  0  0  0
    4.3147    3.1012    0.0000 F   0  0  0  0  0  0  0  0  0  0  0  0
    3.5827   -0.8988    0.0000 O   0  0  0  0  0  0  0  0  0  0  0  0
    5.3147   -0.8988    0.0000 N   0  0  0  0  0  0  0  0  0  0  0  0
    3.5827   -2.8988    0.0000 N   0  0  0  0  0  0  0  0  0  0  0  0
    2.5000   -4.1012    0.0000 N   0  0  0  0  0  0  0  0  0  0  0  0
    5.3147    2.1012    0.0000 C   0  0  0  0  0  0  0  0  0  0  0  0
    5.3147    0.1012    0.0000 C   0  0  0  0  0  0  0  0  0  0  0  0
    4.4487    1.6012    0.0000 C   0  0  0  0  0  0  0  0  0  0  0  0
    6.1808    1.6012    0.0000 C   0  0  0  0  0  0  0  0  0  0  0  0
    4.4487    0.6012    0.0000 C   0  0  0  0  0  0  0  0  0  0  0  0
    6.1808    0.6012    0.0000 C   0  0  0  0  0  0  0  0  0  0  0  0
    5.3147    3.1012    0.0000 C   0  0  0  0  0  0  0  0  0  0  0  0
    4.4487   -1.3988    0.0000 C   0  0  0  0  0  0  0  0  0  0  0  0
    4.4487   -2.3988    0.0000 C   0  0  3  0  0  0  0  0  0  0  0  0
    5.3147   -2.8988    0.0000 C   0  0  0  0  0  0  0  0  0  0  0  0
    2.6691   -2.4920    0.0000 C   0  0  0  0  0  0  0  0  0  0  0  0
    3.4782   -3.8933    0.0000 C   0  0  0  0  0  0  0  0  0  0  0  0
    2.0000   -3.2352    0.0000 C   0  0  0  0  0  0  0  0  0  0  0  0
    5.8517    2.4112    0.0000 H   0  0  0  0  0  0  0  0  0  0  0  0
    5.8517   -0.2088    0.0000 H   0  0  0  0  0  0  0  0  0  0  0  0
    6.3928    0.0186    0.0000 H   0  0  0  0  0  0  0  0  0  0  0  0
    6.7913    0.7089    0.0000 H   0  0  0  0  0  0  0  0  0  0  0  0
    3.8381    0.7089    0.0000 H   0  0  0  0  0  0  0  0  0  0  0  0
    4.2366    0.0186    0.0000 H   0  0  0  0  0  0  0  0  0  0  0  0
    6.7913    1.4936    0.0000 H   0  0  0  0  0  0  0  0  0  0  0  0
    6.3928    2.1838    0.0000 H   0  0  0  0  0  0  0  0  0  0  0  0
    4.2366    2.1838    0.0000 H   0  0  0  0  0  0  0  0  0  0  0  0
    3.8381    1.4936    0.0000 H   0  0  0  0  0  0  0  0  0  0  0  0
    5.8517   -1.2088    0.0000 H   0  0  0  0  0  0  0  0  0  0  0  0
    4.4487   -3.0188    0.0000 H   0  0  0  0  0  0  0  0  0  0  0  0
    5.0047   -3.4357    0.0000 H   0  0  0  0  0  0  0  0  0  0  0  0
    5.8517   -3.2088    0.0000 H   0  0  0  0  0  0  0  0  0  0  0  0
    5.6247   -2.3618    0.0000 H   0  0  0  0  0  0  0  0  0  0  0  0
    2.5402   -1.8856    0.0000 H   0  0  0  0  0  0  0  0  0  0  0  0
    3.9389   -4.3082    0.0000 H   0  0  0  0  0  0  0  0  0  0  0  0
    1.3834   -3.1704    0.0000 H   0  0  0  0  0  0  0  0  0  0  0  0
  1 14  1  0  0  0  0
  2 14  1  0  0  0  0
  3 14  1  0  0  0  0
  4 15  2  0  0  0  0
  5  9  1  0  0  0  0
  5 15  1  0  0  0  0
  5 31  1  0  0  0  0
  6 16  1  0  0  0  0
  6 18  1  0  0  0  0
  6 19  1  0  0  0  0
  7 19  2  0  0  0  0
  7 20  1  0  0  0  0
  8 10  1  0  0  0  0
  8 11  1  0  0  0  0
  8 14  1  0  0  0  0
  8 21  1  0  0  0  0
  9 12  1  0  0  0  0
  9 13  1  0  0  0  0
  9 22  1  0  0  0  0
 10 12  1  0  0  0  0
 10 29  1  0  0  0  0
 10 30  1  0  0  0  0
 11 13  1  0  0  0  0
 11 27  1  0  0  0  0
 11 28  1  0  0  0  0
 12 25  1  0  0  0  0
 12 26  1  0  0  0  0
 13 23  1  0  0  0  0
 13 24  1  0  0  0  0
 15 16  1  0  0  0  0
 16 17  1  0  0  0  0
 16 32  1  0  0  0  0
 17 33  1  0  0  0  0
 17 34  1  0  0  0  0
 17 35  1  0  0  0  0
 18 20  2  0  0  0  0
 18 36  1  0  0  0  0
 19 37  1  0  0  0  0
 20 38  1  0  0  0  0
M  END
> <PUBCHEM_COMPOUND_CID>
47205570

> <PUBCHEM_COMPOUND_CANONICALIZED>
1

> <PUBCHEM_CACTVS_COMPLEXITY>
340

> <PUBCHEM_CACTVS_HBOND_ACCEPTOR>
5

> <PUBCHEM_CACTVS_HBOND_DONOR>
1

> <PUBCHEM_CACTVS_ROTATABLE_BOND>
3

> <PUBCHEM_CACTVS_SUBSKEYS>
AAADceBzIYAAAAAAAAAAAAAAAAAAAWAAAAAwAAAAAAAAAAABgAAAHwAQAAAADSjBghQvkBfMEACoABE3dAAAgC0REqAJQIGYMACASAIAiCAUAAAIFgKAACEQgAAOAAAAAAAAAAAQAAAAAAAAAAAAAAAAAA==

> <PUBCHEM_IUPAC_OPENEYE_NAME>
2-imidazol-1-yl-N-[4-(trifluoromethyl)cyclohexyl]propanamide

> <PUBCHEM_IUPAC_CAS_NAME>
2-(1-imidazolyl)-N-[4-(trifluoromethyl)cyclohexyl]propanamide

> <PUBCHEM_IUPAC_NAME>
2-imidazol-1-yl-N-[4-(trifluoromethyl)cyclohexyl]propanamide

> <PUBCHEM_IUPAC_SYSTEMATIC_NAME>
2-imidazol-1-yl-N-[4-(trifluoromethyl)cyclohexyl]propanamide

> <PUBCHEM_IUPAC_TRADITIONAL_NAME>
2-imidazol-1-yl-N-[4-(trifluoromethyl)cyclohexyl]propionamide

> <PUBCHEM_IUPAC_INCHI>
InChI=1S/C13H18F3N3O/c1-9(19-7-6-17-8-19)12(20)18-11-4-2-10(3-5-11)13(14,15)16/h6-11H,2-5H2,1H3,(H,18,20)

> <PUBCHEM_IUPAC_INCHIKEY>
BZWYXFJODSZJSL-UHFFFAOYSA-N

> <PUBCHEM_XLOGP3_AA>
2.5

> <PUBCHEM_EXACT_MASS>
289.140197

> <PUBCHEM_MOLECULAR_FORMULA>
C13H18F3N3O

> <PUBCHEM_MOLECULAR_WEIGHT>
289.29673

> <PUBCHEM_OPENEYE_CAN_SMILES>
CC(C(=O)NC1CCC(CC1)C(F)(F)F)N2C=CN=C2

> <PUBCHEM_OPENEYE_ISO_SMILES>
CC(C(=O)NC1CCC(CC1)C(F)(F)F)N2C=CN=C2

> <PUBCHEM_CACTVS_TPSA>
46.9

> <PUBCHEM_MONOISOTOPIC_WEIGHT>
289.140197

> <PUBCHEM_TOTAL_CHARGE>
0

> <PUBCHEM_HEAVY_ATOM_COUNT>
20

> <PUBCHEM_ATOM_DEF_STEREO_COUNT>
0

> <PUBCHEM_ATOM_UDEF_STEREO_COUNT>
1

> <PUBCHEM_BOND_DEF_STEREO_COUNT>
0

> <PUBCHEM_BOND_UDEF_STEREO_COUNT>
0

> <PUBCHEM_ISOTOPIC_ATOM_COUNT>
0

> <PUBCHEM_COMPONENT_COUNT>
1

> <PUBCHEM_CACTVS_TAUTO_COUNT>
2

> <PUBCHEM_COORDINATE_TYPE>
1
5
255

> <PUBCHEM_BONDANNOTATIONS>
16  17  3
18  20  8
6  18  8
6  19  8
7  19  8
7  20  8

$$$$

