17396208
  -OEChem-06241222553D

 41 42  0     0  0  0  0  0  0999 V2000
   -8.0428   -1.0900   -0.6064 S   0  0  0  0  0  0  0  0  0  0  0  0
    1.0952    0.3897    0.2053 O   0  0  0  0  0  0  0  0  0  0  0  0
    6.9470    0.0418   -0.6436 O   0  0  0  0  0  0  0  0  0  0  0  0
    4.8407    1.8305   -0.5543 O   0  0  0  0  0  0  0  0  0  0  0  0
   -1.1474   -0.9132   -0.1287 O   0  0  0  0  0  0  0  0  0  0  0  0
    2.3885    2.2607    0.5595 O   0  0  0  0  0  0  0  0  0  0  0  0
   -2.4789    1.0158    0.0657 N   0  0  0  0  0  0  0  0  0  0  0  0
    3.4116    0.1206    0.3178 C   0  0  0  0  0  0  0  0  0  0  0  0
   -3.7942    0.5178   -0.0908 C   0  0  0  0  0  0  0  0  0  0  0  0
    4.6580    0.5421   -0.1454 C   0  0  0  0  0  0  0  0  0  0  0  0
    5.7243   -0.3559   -0.1934 C   0  0  0  0  0  0  0  0  0  0  0  0
    3.2315   -1.1987    0.7333 C   0  0  0  0  0  0  0  0  0  0  0  0
   -0.0907    1.1908    0.2423 C   0  0  0  0  0  0  0  0  0  0  0  0
   -4.0031   -0.8443   -0.3069 C   0  0  0  0  0  0  0  0  0  0  0  0
   -4.8816    1.3894   -0.0310 C   0  0  0  0  0  0  0  0  0  0  0  0
   -1.2923    0.2946    0.0342 C   0  0  0  0  0  0  0  0  0  0  0  0
    2.2847    1.0417    0.3774 C   0  0  0  0  0  0  0  0  0  0  0  0
   -6.3870   -0.4630   -0.4032 C   0  0  0  0  0  0  0  0  0  0  0  0
    5.5442   -1.6753    0.2221 C   0  0  0  0  0  0  0  0  0  0  0  0
    4.2977   -2.0966    0.6854 C   0  0  0  0  0  0  0  0  0  0  0  0
   -5.2996   -1.3348   -0.4632 C   0  0  0  0  0  0  0  0  0  0  0  0
   -6.1779    0.8991   -0.1873 C   0  0  0  0  0  0  0  0  0  0  0  0
    7.9822   -0.9392   -0.6599 C   0  0  0  0  0  0  0  0  0  0  0  0
   -8.8102   -0.6237    0.9711 C   0  0  0  0  0  0  0  0  0  0  0  0
   -2.4121    2.0202    0.2172 H   0  0  0  0  0  0  0  0  0  0  0  0
    2.2771   -1.5549    1.1124 H   0  0  0  0  0  0  0  0  0  0  0  0
   -0.0576    1.9361   -0.5599 H   0  0  0  0  0  0  0  0  0  0  0  0
   -0.1745    1.6804    1.2187 H   0  0  0  0  0  0  0  0  0  0  0  0
   -3.2126   -1.5791   -0.3664 H   0  0  0  0  0  0  0  0  0  0  0  0
   -4.7323    2.4532    0.1349 H   0  0  0  0  0  0  0  0  0  0  0  0
    6.3255   -2.4273    0.2140 H   0  0  0  0  0  0  0  0  0  0  0  0
    4.1575   -3.1231    1.0121 H   0  0  0  0  0  0  0  0  0  0  0  0
   -5.4441   -2.3994   -0.6313 H   0  0  0  0  0  0  0  0  0  0  0  0
   -7.0093    1.5980   -0.1446 H   0  0  0  0  0  0  0  0  0  0  0  0
    4.0048    2.3221   -0.5317 H   0  0  0  0  0  0  0  0  0  0  0  0
    8.2203   -1.2917    0.3495 H   0  0  0  0  0  0  0  0  0  0  0  0
    7.7487   -1.7614   -1.3450 H   0  0  0  0  0  0  0  0  0  0  0  0
    8.8829   -0.4505   -1.0460 H   0  0  0  0  0  0  0  0  0  0  0  0
   -8.2322   -1.0244    1.8083 H   0  0  0  0  0  0  0  0  0  0  0  0
   -8.8781    0.4633    1.0628 H   0  0  0  0  0  0  0  0  0  0  0  0
   -9.8206   -1.0386    1.0136 H   0  0  0  0  0  0  0  0  0  0  0  0
  1 18  1  0  0  0  0
  1 24  1  0  0  0  0
  2 13  1  0  0  0  0
  2 17  1  0  0  0  0
  3 11  1  0  0  0  0
  3 23  1  0  0  0  0
  4 10  1  0  0  0  0
  4 35  1  0  0  0  0
  5 16  2  0  0  0  0
  6 17  2  0  0  0  0
  7  9  1  0  0  0  0
  7 16  1  0  0  0  0
  7 25  1  0  0  0  0
  8 10  2  0  0  0  0
  8 12  1  0  0  0  0
  8 17  1  0  0  0  0
  9 14  2  0  0  0  0
  9 15  1  0  0  0  0
 10 11  1  0  0  0  0
 11 19  2  0  0  0  0
 12 20  2  0  0  0  0
 12 26  1  0  0  0  0
 13 16  1  0  0  0  0
 13 27  1  0  0  0  0
 13 28  1  0  0  0  0
 14 21  1  0  0  0  0
 14 29  1  0  0  0  0
 15 22  2  0  0  0  0
 15 30  1  0  0  0  0
 18 21  2  0  0  0  0
 18 22  1  0  0  0  0
 19 20  1  0  0  0  0
 19 31  1  0  0  0  0
 20 32  1  0  0  0  0
 21 33  1  0  0  0  0
 22 34  1  0  0  0  0
 23 36  1  0  0  0  0
 23 37  1  0  0  0  0
 23 38  1  0  0  0  0
 24 39  1  0  0  0  0
 24 40  1  0  0  0  0
 24 41  1  0  0  0  0
M  END
> <PUBCHEM_COMPOUND_CID>
17396208

> <PUBCHEM_CONFORMER_RMSD>
1

> <PUBCHEM_CONFORMER_DIVERSEORDER>
1
54
38
67
55
48
6
8
64
32
68
45
41
49
62
21
61
4
13
53
51
26
52
24
34
28
25
42
30
43
44
40
15
9
37
23
46
14
29
11
65
50
59
39
5
69
22
27
7
56
10
12
2
20
3
63
35
17
36
60
19
58
33
47
16
31
66
18
57

> <PUBCHEM_MMFF94_PARTIAL_CHARGES>
33
1 -0.33
10 0.08
11 0.08
12 -0.15
13 0.34
14 -0.15
15 -0.15
16 0.57
17 0.63
18 0.1
19 -0.15
2 -0.43
20 -0.15
21 -0.15
22 -0.15
23 0.28
24 0.23
25 0.37
26 0.15
29 0.15
3 -0.36
30 0.15
31 0.15
32 0.15
33 0.15
34 0.15
35 0.45
4 -0.53
5 -0.57
6 -0.57
7 -0.55
8 0.09
9 0.12

> <PUBCHEM_EFFECTIVE_ROTOR_COUNT>
8

> <PUBCHEM_PHARMACOPHORE_FEATURES>
8
1 24 hydrophobe
1 3 acceptor
1 4 donor
1 5 acceptor
1 6 acceptor
1 7 donor
6 8 10 11 12 19 20 rings
6 9 14 15 18 21 22 rings

> <PUBCHEM_HEAVY_ATOM_COUNT>
24

> <PUBCHEM_ATOM_DEF_STEREO_COUNT>
0

> <PUBCHEM_ATOM_UDEF_STEREO_COUNT>
0

> <PUBCHEM_BOND_DEF_STEREO_COUNT>
0

> <PUBCHEM_BOND_UDEF_STEREO_COUNT>
0

> <PUBCHEM_ISOTOPIC_ATOM_COUNT>
0

> <PUBCHEM_COMPONENT_COUNT>
1

> <PUBCHEM_CACTVS_TAUTO_COUNT>
8

> <PUBCHEM_CONFORMER_ID>
010971F000000001

> <PUBCHEM_MMFF94_ENERGY>
79.4597

> <PUBCHEM_FEATURE_SELFOVERLAP>
40.594

> <PUBCHEM_SHAPE_FINGERPRINT>
10 15 7348888901960508247
10299344 5 18409446994745005935
10595046 47 18412826906047033440
11315181 36 18186238429541532521
11524674 6 16515407344459000183
11638347 137 4678821648811302829
11719270 70 17748827436081529247
12166972 35 18409730638928874713
12236239 1 18408604772816806609
125118 31 7276839000109313579
12516196 113 18260271854010698512
12592606 108 18114186307297383423
12616971 3 15719684165050982057
13533116 47 18409452470627868065
13668630 136 18040713688616719622
13685833 64 18410575085169500731
14123256 10 18272933821067691223
14178184 131 18116432528292293591
14251764 18 18407759240365133635
14933364 13 18343302578742063453
15183329 4 18412829100927906427
15348495 7 13912901782243710111
15461852 350 13686293557420488427
17134984 74 17846781810493218986
17844677 252 18411134744899099933
21150785 3 16343983602915663323
21267235 1 18335137596287364537
221357 26 18343588451380475124
22224240 67 8718823176778432196
22956985 138 17171221117722638494
23035841 295 18259985960145330891
232437 2 18408040728617344262
23522609 53 18191558961602780649
23559900 14 18338242540268649009
246663 6 18408601461866305423
3004659 81 18413392047008386000
3411729 13 16807031848544425248
397830 11 14635736093852922479
4073 2 18059290946479446275
4325135 7 18413389838757106951
465052 167 18186802491506127788
999808 66 18059847347773526507

> <PUBCHEM_SHAPE_MULTIPOLES>
463.43
26.03
1.82
0.8
15.96
0.11
-0.04
-9.01
2.68
-1.17
-0.15
0.12
-0.11
-0.49

> <PUBCHEM_SHAPE_SELFOVERLAP>
967.159

> <PUBCHEM_SHAPE_VOLUME>
264.3

> <PUBCHEM_COORDINATE_TYPE>
2
5
10

$$$$

