8589
  -OEChem-06261202562D

 67 67  0     1  0  0  0  0  0999 V2000
   10.4727    4.4564    0.0000 O   0  0  0  0  0  0  0  0  0  0  0  0
    2.7690    3.7710    0.0000 O   0  0  0  0  0  0  0  0  0  0  0  0
    4.0010    4.6370    0.0000 O   0  0  0  0  0  0  0  0  0  0  0  0
    3.1350    6.1370    0.0000 O   0  0  0  0  0  0  0  0  0  0  0  0
    0.5369    2.6370    0.0000 O   0  0  0  0  0  0  0  0  0  0  0  0
    0.2690    6.3691    0.0000 O   0  0  0  0  0  0  0  0  0  0  0  0
    0.2690    4.6370    0.0000 O   0  0  0  0  0  0  0  0  0  0  0  0
    2.2690    2.6370    0.0000 O   0  0  0  0  0  0  0  0  0  0  0  0
   11.7807    7.2540    0.0000 N   0  0  0  0  0  0  0  0  0  0  0  0
    8.9946    5.1145    0.0000 N   0  0  0  0  0  0  0  0  0  0  0  0
    9.8036    3.7133    0.0000 N   0  0  0  0  0  0  0  0  0  0  0  0
    8.0240    3.6200    0.0000 C   0  0  3  0  0  0  0  0  0  0  0  0
   11.3740    6.3405    0.0000 C   0  0  0  0  0  0  0  0  0  0  0  0
   10.3794    6.2360    0.0000 C   0  0  0  0  0  0  0  0  0  0  0  0
    7.1580    4.1200    0.0000 C   0  0  0  0  0  0  0  0  0  0  0  0
    8.8900    4.1200    0.0000 C   0  0  0  0  0  0  0  0  0  0  0  0
    8.0240    2.6200    0.0000 C   0  0  0  0  0  0  0  0  0  0  0  0
   12.7752    7.3586    0.0000 C   0  0  0  0  0  0  0  0  0  0  0  0
   11.1929    8.0631    0.0000 C   0  0  0  0  0  0  0  0  0  0  0  0
    9.9727    5.3224    0.0000 C   0  0  0  0  0  0  0  0  0  0  0  0
    7.1580    5.1200    0.0000 C   0  0  0  0  0  0  0  0  0  0  0  0
    7.1580    2.1200    0.0000 C   0  0  0  0  0  0  0  0  0  0  0  0
    8.8900    2.1200    0.0000 C   0  0  0  0  0  0  0  0  0  0  0  0
    2.2690    4.6370    0.0000 C   0  0  0  0  0  0  0  0  0  0  0  0
   13.1820    8.2721    0.0000 C   0  0  0  0  0  0  0  0  0  0  0  0
   11.5996    8.9766    0.0000 C   0  0  0  0  0  0  0  0  0  0  0  0
    1.4030    4.1370    0.0000 C   0  0  0  0  0  0  0  0  0  0  0  0
    1.7690    5.5030    0.0000 C   0  0  0  0  0  0  0  0  0  0  0  0
    7.1580    1.1200    0.0000 C   0  0  0  0  0  0  0  0  0  0  0  0
    8.8900    1.1200    0.0000 C   0  0  0  0  0  0  0  0  0  0  0  0
    8.0240    0.6200    0.0000 C   0  0  0  0  0  0  0  0  0  0  0  0
    3.1350    5.1370    0.0000 C   0  0  0  0  0  0  0  0  0  0  0  0
    0.7690    5.5030    0.0000 C   0  0  0  0  0  0  0  0  0  0  0  0
    1.4030    3.1370    0.0000 C   0  0  0  0  0  0  0  0  0  0  0  0
    8.0240    4.2400    0.0000 H   0  0  0  0  0  0  0  0  0  0  0  0
   11.3307    5.7220    0.0000 H   0  0  0  0  0  0  0  0  0  0  0  0
   11.9755    6.1905    0.0000 H   0  0  0  0  0  0  0  0  0  0  0  0
   10.4227    6.8545    0.0000 H   0  0  0  0  0  0  0  0  0  0  0  0
    9.7779    6.3860    0.0000 H   0  0  0  0  0  0  0  0  0  0  0  0
    6.5474    4.2277    0.0000 H   0  0  0  0  0  0  0  0  0  0  0  0
    6.9459    3.5374    0.0000 H   0  0  0  0  0  0  0  0  0  0  0  0
   12.7320    6.7401    0.0000 H   0  0  0  0  0  0  0  0  0  0  0  0
   13.3768    7.2086    0.0000 H   0  0  0  0  0  0  0  0  0  0  0  0
   10.6789    8.4098    0.0000 H   0  0  0  0  0  0  0  0  0  0  0  0
   10.7622    7.6171    0.0000 H   0  0  0  0  0  0  0  0  0  0  0  0
    7.7780    5.1200    0.0000 H   0  0  0  0  0  0  0  0  0  0  0  0
    7.1580    5.7400    0.0000 H   0  0  0  0  0  0  0  0  0  0  0  0
    6.5380    5.1200    0.0000 H   0  0  0  0  0  0  0  0  0  0  0  0
    6.6210    2.4300    0.0000 H   0  0  0  0  0  0  0  0  0  0  0  0
    9.4270    2.4300    0.0000 H   0  0  0  0  0  0  0  0  0  0  0  0
   13.7484    8.0200    0.0000 H   0  0  0  0  0  0  0  0  0  0  0  0
   13.4341    8.8385    0.0000 H   0  0  0  0  0  0  0  0  0  0  0  0
   12.6156    8.5243    0.0000 H   0  0  0  0  0  0  0  0  0  0  0  0
   12.1660    8.7244    0.0000 H   0  0  0  0  0  0  0  0  0  0  0  0
   11.8518    9.5430    0.0000 H   0  0  0  0  0  0  0  0  0  0  0  0
   11.0332    9.2288    0.0000 H   0  0  0  0  0  0  0  0  0  0  0  0
    1.1909    4.7196    0.0000 H   0  0  0  0  0  0  0  0  0  0  0  0
    0.7924    4.0294    0.0000 H   0  0  0  0  0  0  0  0  0  0  0  0
    2.3516    5.7151    0.0000 H   0  0  0  0  0  0  0  0  0  0  0  0
    1.6613    6.1136    0.0000 H   0  0  0  0  0  0  0  0  0  0  0  0
    6.6210    0.8100    0.0000 H   0  0  0  0  0  0  0  0  0  0  0  0
    9.4270    0.8100    0.0000 H   0  0  0  0  0  0  0  0  0  0  0  0
    8.0240    0.0000    0.0000 H   0  0  0  0  0  0  0  0  0  0  0  0
    2.4590    3.2340    0.0000 H   0  0  0  0  0  0  0  0  0  0  0  0
    4.5380    4.9470    0.0000 H   0  0  0  0  0  0  0  0  0  0  0  0
    0.5790    6.9060    0.0000 H   0  0  0  0  0  0  0  0  0  0  0  0
    0.0000    2.9470    0.0000 H   0  0  0  0  0  0  0  0  0  0  0  0
  1 11  1  0  0  0  0
  1 20  1  0  0  0  0
  2 24  1  0  0  0  0
  2 64  1  0  0  0  0
  3 32  1  0  0  0  0
  3 65  1  0  0  0  0
  4 32  2  0  0  0  0
  5 34  1  0  0  0  0
  5 67  1  0  0  0  0
  6 33  1  0  0  0  0
  6 66  1  0  0  0  0
  7 33  2  0  0  0  0
  8 34  2  0  0  0  0
  9 13  1  0  0  0  0
  9 18  1  0  0  0  0
  9 19  1  0  0  0  0
 10 16  1  0  0  0  0
 10 20  2  0  0  0  0
 11 16  2  0  0  0  0
 12 15  1  0  0  0  0
 12 16  1  0  0  0  0
 12 17  1  0  0  0  0
 12 35  1  0  0  0  0
 13 14  1  0  0  0  0
 13 36  1  0  0  0  0
 13 37  1  0  0  0  0
 14 20  1  0  0  0  0
 14 38  1  0  0  0  0
 14 39  1  0  0  0  0
 15 21  1  0  0  0  0
 15 40  1  0  0  0  0
 15 41  1  0  0  0  0
 17 22  2  0  0  0  0
 17 23  1  0  0  0  0
 18 25  1  0  0  0  0
 18 42  1  0  0  0  0
 18 43  1  0  0  0  0
 19 26  1  0  0  0  0
 19 44  1  0  0  0  0
 19 45  1  0  0  0  0
 21 46  1  0  0  0  0
 21 47  1  0  0  0  0
 21 48  1  0  0  0  0
 22 29  1  0  0  0  0
 22 49  1  0  0  0  0
 23 30  2  0  0  0  0
 23 50  1  0  0  0  0
 24 27  1  0  0  0  0
 24 28  1  0  0  0  0
 24 32  1  0  0  0  0
 25 51  1  0  0  0  0
 25 52  1  0  0  0  0
 25 53  1  0  0  0  0
 26 54  1  0  0  0  0
 26 55  1  0  0  0  0
 26 56  1  0  0  0  0
 27 34  1  0  0  0  0
 27 57  1  0  0  0  0
 27 58  1  0  0  0  0
 28 33  1  0  0  0  0
 28 59  1  0  0  0  0
 28 60  1  0  0  0  0
 29 31  2  0  0  0  0
 29 61  1  0  0  0  0
 30 31  1  0  0  0  0
 30 62  1  0  0  0  0
 31 63  1  0  0  0  0
M  END
> <PUBCHEM_COMPOUND_CID>
8589

> <PUBCHEM_COMPOUND_CANONICALIZED>
1

> <PUBCHEM_CACTVS_COMPLEXITY>
505

> <PUBCHEM_CACTVS_HBOND_ACCEPTOR>
11

> <PUBCHEM_CACTVS_HBOND_DONOR>
4

> <PUBCHEM_CACTVS_ROTATABLE_BOND>
13

> <PUBCHEM_CACTVS_SUBSKEYS>
AAADcfB7PAAAAAAAAAAAAAAAAAAAAWAAAAAwAAAAAAAAAAABwAAAHgAECAAADUTBmwQzGIcYEgCpAiPyPgICgAkgAKApiAF4AIiJKD6A2RGEYAAnpQKJiAfbpsAOgAAAAAAAAAAAAAAAAAAAAAAAAAAAAA==

> <PUBCHEM_IUPAC_OPENEYE_NAME>
citric acid; N,N-diethyl-2-[3-(1-phenylpropyl)-1,2,4-oxadiazol-5-yl]ethanamine

> <PUBCHEM_IUPAC_CAS_NAME>
N,N-diethyl-2-[3-(1-phenylpropyl)-1,2,4-oxadiazol-5-yl]ethanamine; 2-hydroxypropane-1,2,3-tricarboxylic acid

> <PUBCHEM_IUPAC_NAME>
N,N-diethyl-2-[3-(1-phenylpropyl)-1,2,4-oxadiazol-5-yl]ethanamine; 2-hydroxypropane-1,2,3-tricarboxylic acid

> <PUBCHEM_IUPAC_SYSTEMATIC_NAME>
N,N-diethyl-2-[3-(1-phenylpropyl)-1,2,4-oxadiazol-5-yl]ethanamine; 2-oxidanylpropane-1,2,3-tricarboxylic acid

> <PUBCHEM_IUPAC_TRADITIONAL_NAME>
citric acid; diethyl-[2-[3-(1-phenylpropyl)-1,2,4-oxadiazol-5-yl]ethyl]amine

> <PUBCHEM_IUPAC_INCHI>
InChI=1S/C17H25N3O.C6H8O7/c1-4-15(14-10-8-7-9-11-14)17-18-16(21-19-17)12-13-20(5-2)6-3;7-3(8)1-6(13,5(11)12)2-4(9)10/h7-11,15H,4-6,12-13H2,1-3H3;13H,1-2H2,(H,7,8)(H,9,10)(H,11,12)

> <PUBCHEM_IUPAC_INCHIKEY>
WFAULHLDTDDABL-UHFFFAOYSA-N

> <PUBCHEM_EXACT_MASS>
479.226765

> <PUBCHEM_MOLECULAR_FORMULA>
C23H33N3O8

> <PUBCHEM_MOLECULAR_WEIGHT>
479.52342

> <PUBCHEM_OPENEYE_CAN_SMILES>
CCC(C1=CC=CC=C1)C2=NOC(=N2)CCN(CC)CC.C(C(=O)O)C(CC(=O)O)(C(=O)O)O

> <PUBCHEM_OPENEYE_ISO_SMILES>
CCC(C1=CC=CC=C1)C2=NOC(=N2)CCN(CC)CC.C(C(=O)O)C(CC(=O)O)(C(=O)O)O

> <PUBCHEM_CACTVS_TPSA>
174

> <PUBCHEM_MONOISOTOPIC_WEIGHT>
479.226765

> <PUBCHEM_TOTAL_CHARGE>
0

> <PUBCHEM_HEAVY_ATOM_COUNT>
34

> <PUBCHEM_ATOM_DEF_STEREO_COUNT>
0

> <PUBCHEM_ATOM_UDEF_STEREO_COUNT>
1

> <PUBCHEM_BOND_DEF_STEREO_COUNT>
0

> <PUBCHEM_BOND_UDEF_STEREO_COUNT>
0

> <PUBCHEM_ISOTOPIC_ATOM_COUNT>
0

> <PUBCHEM_COMPONENT_COUNT>
2

> <PUBCHEM_CACTVS_TAUTO_COUNT>
5

> <PUBCHEM_COORDINATE_TYPE>
1
5
255

> <PUBCHEM_BONDANNOTATIONS>
1  11  8
1  20  8
10  16  8
10  20  8
11  16  8
12  15  3
17  22  8
17  23  8
22  29  8
23  30  8
29  31  8
30  31  8

$$$$

