586282
  -OEChem-06241222462D

 28 29  0     0  0  0  0  0  0999 V2000
    2.0000   -1.0194    0.0000 Cl  0  0  0  0  0  0  0  0  0  0  0  0
    6.2731    3.5684    0.0000 S   0  0  0  0  0  0  0  0  0  0  0  0
    3.7320   -0.0194    0.0000 O   0  0  0  0  0  0  0  0  0  0  0  0
    5.4641   -0.0194    0.0000 O   0  0  0  0  0  0  0  0  0  0  0  0
    4.5981   -4.5194    0.0000 O   0  5  0  0  0  0  0  0  0  0  0  0
    2.8660   -4.5194    0.0000 O   0  0  0  0  0  0  0  0  0  0  0  0
    3.7320   -4.0194    0.0000 N   0  3  0  0  0  0  0  0  0  0  0  0
    3.7320   -1.0194    0.0000 C   0  0  0  0  0  0  0  0  0  0  0  0
    3.7320   -3.0194    0.0000 C   0  0  0  0  0  0  0  0  0  0  0  0
    2.8660   -1.5194    0.0000 C   0  0  0  0  0  0  0  0  0  0  0  0
    4.5981   -1.5194    0.0000 C   0  0  0  0  0  0  0  0  0  0  0  0
    2.8660   -2.5194    0.0000 C   0  0  0  0  0  0  0  0  0  0  0  0
    4.5981   -2.5194    0.0000 C   0  0  0  0  0  0  0  0  0  0  0  0
    5.4641    2.9806    0.0000 C   0  0  0  0  0  0  0  0  0  0  0  0
    5.4641    1.9806    0.0000 C   0  0  0  0  0  0  0  0  0  0  0  0
    4.6551    3.5684    0.0000 C   0  0  0  0  0  0  0  0  0  0  0  0
    4.5981    1.4806    0.0000 C   0  0  0  0  0  0  0  0  0  0  0  0
    4.5981    0.4806    0.0000 C   0  0  0  0  0  0  0  0  0  0  0  0
    4.9641    4.5194    0.0000 C   0  0  0  0  0  0  0  0  0  0  0  0
    5.9641    4.5194    0.0000 C   0  0  0  0  0  0  0  0  0  0  0  0
    5.1350   -1.2094    0.0000 H   0  0  0  0  0  0  0  0  0  0  0  0
    2.3291   -2.8294    0.0000 H   0  0  0  0  0  0  0  0  0  0  0  0
    5.1350   -2.8294    0.0000 H   0  0  0  0  0  0  0  0  0  0  0  0
    6.0010    1.6706    0.0000 H   0  0  0  0  0  0  0  0  0  0  0  0
    4.0654    3.3768    0.0000 H   0  0  0  0  0  0  0  0  0  0  0  0
    4.0611    1.7906    0.0000 H   0  0  0  0  0  0  0  0  0  0  0  0
    4.5997    5.0210    0.0000 H   0  0  0  0  0  0  0  0  0  0  0  0
    6.3285    5.0210    0.0000 H   0  0  0  0  0  0  0  0  0  0  0  0
  1 10  1  0  0  0  0
  2 14  1  0  0  0  0
  2 20  1  0  0  0  0
  3  8  1  0  0  0  0
  3 18  1  0  0  0  0
  4 18  2  0  0  0  0
  5  7  1  0  0  0  0
  6  7  2  0  0  0  0
  7  9  1  0  0  0  0
  8 10  2  0  0  0  0
  8 11  1  0  0  0  0
  9 12  2  0  0  0  0
  9 13  1  0  0  0  0
 10 12  1  0  0  0  0
 11 13  2  0  0  0  0
 11 21  1  0  0  0  0
 12 22  1  0  0  0  0
 13 23  1  0  0  0  0
 14 15  1  0  0  0  0
 14 16  2  0  0  0  0
 15 17  2  3  0  0  0
 15 24  1  0  0  0  0
 16 19  1  0  0  0  0
 16 25  1  0  0  0  0
 17 18  1  0  0  0  0
 17 26  1  0  0  0  0
 19 20  2  0  0  0  0
 19 27  1  0  0  0  0
 20 28  1  0  0  0  0
M  CHG  2   5  -1   7   1
M  END
> <PUBCHEM_COMPOUND_CID>
586282

> <PUBCHEM_COMPOUND_CANONICALIZED>
1

> <PUBCHEM_CACTVS_COMPLEXITY>
398

> <PUBCHEM_CACTVS_HBOND_ACCEPTOR>
5

> <PUBCHEM_CACTVS_HBOND_DONOR>
0

> <PUBCHEM_CACTVS_ROTATABLE_BOND>
4

> <PUBCHEM_CACTVS_SUBSKEYS>
AAADccByOABEAAAAAAAAAAAAAAAAASAAAAAwAAAAAAAAAAABwAAAHgYEAAAACA6F0CCwz4AQRAiNACTSSwCDCIAgL1BoiBgGb8oMJiOls5uCOiDkwBEo6YewQAAAAEAAAAIACAAAgAAABAAQAAAAAAAAAA==

> <PUBCHEM_IUPAC_OPENEYE_NAME>
(2-chloro-4-nitro-phenyl) 3-(2-thienyl)prop-2-enoate

> <PUBCHEM_IUPAC_CAS_NAME>
3-thiophen-2-yl-2-propenoic acid (2-chloro-4-nitrophenyl) ester

> <PUBCHEM_IUPAC_NAME>
(2-chloro-4-nitrophenyl) 3-thiophen-2-ylprop-2-enoate

> <PUBCHEM_IUPAC_SYSTEMATIC_NAME>
(2-chloranyl-4-nitro-phenyl) 3-thiophen-2-ylprop-2-enoate

> <PUBCHEM_IUPAC_TRADITIONAL_NAME>
3-(2-thienyl)acrylic acid (2-chloro-4-nitro-phenyl) ester

> <PUBCHEM_IUPAC_INCHI>
InChI=1S/C13H8ClNO4S/c14-11-8-9(15(17)18)3-5-12(11)19-13(16)6-4-10-2-1-7-20-10/h1-8H

> <PUBCHEM_IUPAC_INCHIKEY>
RFMZIZSRHLAPLB-UHFFFAOYSA-N

> <PUBCHEM_XLOGP3_AA>
3.9

> <PUBCHEM_EXACT_MASS>
308.986256

> <PUBCHEM_MOLECULAR_FORMULA>
C13H8ClNO4S

> <PUBCHEM_MOLECULAR_WEIGHT>
309.72492

> <PUBCHEM_OPENEYE_CAN_SMILES>
C1=CSC(=C1)C=CC(=O)OC2=C(C=C(C=C2)[N+](=O)[O-])Cl

> <PUBCHEM_OPENEYE_ISO_SMILES>
C1=CSC(=C1)C=CC(=O)OC2=C(C=C(C=C2)[N+](=O)[O-])Cl

> <PUBCHEM_CACTVS_TPSA>
100

> <PUBCHEM_MONOISOTOPIC_WEIGHT>
308.986256

> <PUBCHEM_TOTAL_CHARGE>
0

> <PUBCHEM_HEAVY_ATOM_COUNT>
20

> <PUBCHEM_ATOM_DEF_STEREO_COUNT>
0

> <PUBCHEM_ATOM_UDEF_STEREO_COUNT>
0

> <PUBCHEM_BOND_DEF_STEREO_COUNT>
0

> <PUBCHEM_BOND_UDEF_STEREO_COUNT>
1

> <PUBCHEM_ISOTOPIC_ATOM_COUNT>
0

> <PUBCHEM_COMPONENT_COUNT>
1

> <PUBCHEM_CACTVS_TAUTO_COUNT>
1

> <PUBCHEM_COORDINATE_TYPE>
1
5
255

> <PUBCHEM_BONDANNOTATIONS>
10  12  8
11  13  8
14  16  8
15  17  1
16  19  8
19  20  8
2  14  8
2  20  8
8  10  8
8  11  8
9  12  8
9  13  8

$$$$

