12964
  -OEChem-06261207363D

 17 16  0     1  0  0  0  0  0999 V2000
   -1.7458   -0.3871   -0.8601 O   0  0  0  0  0  0  0  0  0  0  0  0
    0.2911   -0.3953    0.4436 C   0  0  2  0  0  0  0  0  0  0  0  0
    0.2630   -1.9206    0.4495 C   0  0  0  0  0  0  0  0  0  0  0  0
   -1.0470    0.1733   -0.0152 C   0  0  0  0  0  0  0  0  0  0  0  0
    1.3424    0.1286   -0.4921 C   0  0  0  0  0  0  0  0  0  0  0  0
   -1.4641    1.4942    0.5815 C   0  0  0  0  0  0  0  0  0  0  0  0
    2.3605    0.9070   -0.1072 C   0  0  0  0  0  0  0  0  0  0  0  0
    0.4672   -0.0572    1.4721 H   0  0  0  0  0  0  0  0  0  0  0  0
    1.2068   -2.3273    0.8288 H   0  0  0  0  0  0  0  0  0  0  0  0
    0.1000   -2.3304   -0.5541 H   0  0  0  0  0  0  0  0  0  0  0  0
   -0.5463   -2.2896    1.0892 H   0  0  0  0  0  0  0  0  0  0  0  0
    1.2712   -0.1460   -1.5421 H   0  0  0  0  0  0  0  0  0  0  0  0
   -2.4513    1.7730    0.2025 H   0  0  0  0  0  0  0  0  0  0  0  0
   -0.7465    2.2697    0.3037 H   0  0  0  0  0  0  0  0  0  0  0  0
   -1.5209    1.4035    1.6690 H   0  0  0  0  0  0  0  0  0  0  0  0
    3.0908    1.2533   -0.8301 H   0  0  0  0  0  0  0  0  0  0  0  0
    2.4828    1.2111    0.9264 H   0  0  0  0  0  0  0  0  0  0  0  0
  1  4  2  0  0  0  0
  2  3  1  0  0  0  0
  2  4  1  0  0  0  0
  2  5  1  0  0  0  0
  2  8  1  0  0  0  0
  3  9  1  0  0  0  0
  3 10  1  0  0  0  0
  3 11  1  0  0  0  0
  4  6  1  0  0  0  0
  5  7  2  0  0  0  0
  5 12  1  0  0  0  0
  6 13  1  0  0  0  0
  6 14  1  0  0  0  0
  6 15  1  0  0  0  0
  7 16  1  0  0  0  0
  7 17  1  0  0  0  0
M  END
> <PUBCHEM_COMPOUND_CID>
12964

> <PUBCHEM_CONFORMER_RMSD>
0.4

> <PUBCHEM_CONFORMER_DIVERSEORDER>
1
11
8
6
12
9
7
14
13
2
4
5
3
10

> <PUBCHEM_MMFF94_PARTIAL_CHARGES>
9
1 -0.57
12 0.15
16 0.15
17 0.15
2 0.2
4 0.45
5 -0.29
6 0.06
7 -0.3

> <PUBCHEM_EFFECTIVE_ROTOR_COUNT>
2

> <PUBCHEM_PHARMACOPHORE_FEATURES>
3
1 1 acceptor
1 3 hydrophobe
1 7 hydrophobe

> <PUBCHEM_HEAVY_ATOM_COUNT>
7

> <PUBCHEM_ATOM_DEF_STEREO_COUNT>
0

> <PUBCHEM_ATOM_UDEF_STEREO_COUNT>
1

> <PUBCHEM_BOND_DEF_STEREO_COUNT>
0

> <PUBCHEM_BOND_UDEF_STEREO_COUNT>
0

> <PUBCHEM_ISOTOPIC_ATOM_COUNT>
0

> <PUBCHEM_COMPONENT_COUNT>
1

> <PUBCHEM_CACTVS_TAUTO_COUNT>
5

> <PUBCHEM_CONFORMER_ID>
000032A400000001

> <PUBCHEM_MMFF94_ENERGY>
5.8701

> <PUBCHEM_FEATURE_SELFOVERLAP>
15.223

> <PUBCHEM_SHAPE_FINGERPRINT>
137420 1 6142313497017560802
18185500 45 18120382217736938617
20096714 4 18265605670563022056
21040471 1 18342166761454898028
23552449 1 17833546800034864400
24536 1 18129105695900041075
29004967 10 6338955585457158822
5084963 1 17489582338231983394
5943 1 13279387246946961627

> <PUBCHEM_SHAPE_MULTIPOLES>
138.19
2.53
1.65
0.83
0.69
0.53
0.04
-1.18
0.27
-0.04
-0.36
-0.17
0.03
-0.31

> <PUBCHEM_SHAPE_SELFOVERLAP>
252.165

> <PUBCHEM_SHAPE_VOLUME>
89

> <PUBCHEM_COORDINATE_TYPE>
2
5
10

$$$$

