7575
  -OEChem-06261202103D

 36 38  0     0  0  0  0  0  0999 V2000
    3.2293    1.1854   -0.0244 N   0  0  0  0  0  0  0  0  0  0  0  0
   -2.3002    0.5011   -0.5720 N   0  0  0  0  0  0  0  0  0  0  0  0
   -2.7531   -0.1314    0.4109 N   0  0  0  0  0  0  0  0  0  0  0  0
    1.8364    1.0128   -0.1620 C   0  0  0  0  0  0  0  0  0  0  0  0
    4.2973    0.2737    0.0848 C   0  0  0  0  0  0  0  0  0  0  0  0
    1.3341   -0.1135   -0.8139 C   0  0  0  0  0  0  0  0  0  0  0  0
    0.9608    1.9687    0.3531 C   0  0  0  0  0  0  0  0  0  0  0  0
   -0.9122    0.6728   -0.4344 C   0  0  0  0  0  0  0  0  0  0  0  0
   -0.0435   -0.2838   -0.9505 C   0  0  0  0  0  0  0  0  0  0  0  0
   -0.4168    1.7983    0.2167 C   0  0  0  0  0  0  0  0  0  0  0  0
    5.5614    0.6158   -0.3988 C   0  0  0  0  0  0  0  0  0  0  0  0
    4.0943   -0.9742    0.6767 C   0  0  0  0  0  0  0  0  0  0  0  0
    6.6189   -0.2872   -0.2908 C   0  0  0  0  0  0  0  0  0  0  0  0
    5.1520   -1.8771    0.7848 C   0  0  0  0  0  0  0  0  0  0  0  0
    6.4144   -1.5335    0.3011 C   0  0  0  0  0  0  0  0  0  0  0  0
   -4.1344   -0.3023    0.2745 C   0  0  0  0  0  0  0  0  0  0  0  0
   -4.6371   -1.4285   -0.3772 C   0  0  0  0  0  0  0  0  0  0  0  0
   -5.0096    0.6549    0.7881 C   0  0  0  0  0  0  0  0  0  0  0  0
   -6.0148   -1.5974   -0.5153 C   0  0  0  0  0  0  0  0  0  0  0  0
   -6.3873    0.4858    0.6501 C   0  0  0  0  0  0  0  0  0  0  0  0
   -6.8900   -0.6404   -0.0015 C   0  0  0  0  0  0  0  0  0  0  0  0
    3.5190    2.1591   -0.0004 H   0  0  0  0  0  0  0  0  0  0  0  0
    1.9925   -0.8628   -1.2448 H   0  0  0  0  0  0  0  0  0  0  0  0
    1.3400    2.8502    0.8638 H   0  0  0  0  0  0  0  0  0  0  0  0
   -0.4264   -1.1613   -1.4646 H   0  0  0  0  0  0  0  0  0  0  0  0
   -1.0918    2.5480    0.6207 H   0  0  0  0  0  0  0  0  0  0  0  0
    5.7336    1.5837   -0.8629 H   0  0  0  0  0  0  0  0  0  0  0  0
    3.1277   -1.2605    1.0822 H   0  0  0  0  0  0  0  0  0  0  0  0
    7.6019   -0.0199   -0.6674 H   0  0  0  0  0  0  0  0  0  0  0  0
    4.9942   -2.8457    1.2502 H   0  0  0  0  0  0  0  0  0  0  0  0
    7.2382   -2.2360    0.3863 H   0  0  0  0  0  0  0  0  0  0  0  0
   -3.9634   -2.1801   -0.7807 H   0  0  0  0  0  0  0  0  0  0  0  0
   -4.6276    1.5357    1.2978 H   0  0  0  0  0  0  0  0  0  0  0  0
   -6.4062   -2.4742   -1.0228 H   0  0  0  0  0  0  0  0  0  0  0  0
   -7.0687    1.2310    1.0501 H   0  0  0  0  0  0  0  0  0  0  0  0
   -7.9627   -0.7721   -0.1090 H   0  0  0  0  0  0  0  0  0  0  0  0
  1  4  1  0  0  0  0
  1  5  1  0  0  0  0
  1 22  1  0  0  0  0
  2  3  2  0  0  0  0
  2  8  1  0  0  0  0
  3 16  1  0  0  0  0
  4  6  2  0  0  0  0
  4  7  1  0  0  0  0
  5 11  2  0  0  0  0
  5 12  1  0  0  0  0
  6  9  1  0  0  0  0
  6 23  1  0  0  0  0
  7 10  2  0  0  0  0
  7 24  1  0  0  0  0
  8  9  2  0  0  0  0
  8 10  1  0  0  0  0
  9 25  1  0  0  0  0
 10 26  1  0  0  0  0
 11 13  1  0  0  0  0
 11 27  1  0  0  0  0
 12 14  2  0  0  0  0
 12 28  1  0  0  0  0
 13 15  2  0  0  0  0
 13 29  1  0  0  0  0
 14 15  1  0  0  0  0
 14 30  1  0  0  0  0
 15 31  1  0  0  0  0
 16 17  2  0  0  0  0
 16 18  1  0  0  0  0
 17 19  1  0  0  0  0
 17 32  1  0  0  0  0
 18 20  2  0  0  0  0
 18 33  1  0  0  0  0
 19 21  2  0  0  0  0
 19 34  1  0  0  0  0
 20 21  1  0  0  0  0
 20 35  1  0  0  0  0
 21 36  1  0  0  0  0
M  END
> <PUBCHEM_COMPOUND_CID>
7575

> <PUBCHEM_CONFORMER_RMSD>
0.6

> <PUBCHEM_CONFORMER_DIVERSEORDER>
1
2
8
14
4
12
15
11
7
13
10
5
3
9
6

> <PUBCHEM_MMFF94_PARTIAL_CHARGES>
36
1 -0.6
10 -0.15
11 -0.15
12 -0.15
13 -0.15
14 -0.15
15 -0.15
16 0.18
17 -0.15
18 -0.15
19 -0.15
2 -0.18
20 -0.15
21 -0.15
22 0.4
23 0.15
24 0.15
25 0.15
26 0.15
27 0.15
28 0.15
29 0.15
3 -0.18
30 0.15
31 0.15
32 0.15
33 0.15
34 0.15
35 0.15
36 0.15
4 0.1
5 0.1
6 -0.15
7 -0.15
8 0.18
9 -0.15

> <PUBCHEM_EFFECTIVE_ROTOR_COUNT>
4

> <PUBCHEM_PHARMACOPHORE_FEATURES>
5
1 1 cation
1 1 donor
6 16 17 18 19 20 21 rings
6 4 6 7 8 9 10 rings
6 5 11 12 13 14 15 rings

> <PUBCHEM_HEAVY_ATOM_COUNT>
21

> <PUBCHEM_ATOM_DEF_STEREO_COUNT>
0

> <PUBCHEM_ATOM_UDEF_STEREO_COUNT>
0

> <PUBCHEM_BOND_DEF_STEREO_COUNT>
0

> <PUBCHEM_BOND_UDEF_STEREO_COUNT>
0

> <PUBCHEM_ISOTOPIC_ATOM_COUNT>
0

> <PUBCHEM_COMPONENT_COUNT>
1

> <PUBCHEM_CACTVS_TAUTO_COUNT>
2

> <PUBCHEM_CONFORMER_ID>
00001D9700000001

> <PUBCHEM_MMFF94_ENERGY>
74.9254

> <PUBCHEM_FEATURE_SELFOVERLAP>
25.371

> <PUBCHEM_SHAPE_FINGERPRINT>
10 15 16515408447653378922
10299344 5 18411978066132815454
106641 1 17749677307573030314
11315181 36 18260545598705405905
11524674 6 17022904536676497159
11646440 116 14707205504709075395
11719270 70 17822007622964765855
11796584 16 17203326680595041707
12166972 35 18410572860092371329
12236239 1 18260828185208383448
125118 31 5617263619232779275
12516196 113 18409450280289661448
12592606 108 18410015412682743407
12596602 18 17748829583628253330
12616971 3 17022911111896964645
12760667 363 18342457058347240841
13533116 47 18343301475067161912
13668630 136 17060336297853082283
13685833 64 18131067130244500651
13862211 1 18408323276280668703
14251764 18 18261392226062288540
15048467 5 8935001468807489122
15183329 4 18131635586356662123
15198563 99 16558478586009189695
15301273 46 17168136871504912956
15348495 7 16081662070978427666
15461852 350 16370733626035634797
15690457 1 18259990340827805039
15716309 27 18411136935389806655
15927050 60 17683530529085217956
17134984 74 17060622179091835770
17492 89 18124318474551530730
17857418 61 18411419505535847807
18006028 8 18410293614002798357
19489759 90 17458059366298061859
20028762 73 18259705588321965102
20567600 75 17917719023567270775
21267235 1 18336543915616349830
21637258 2 18060429027372138088
22224240 67 16588030108209787206
22956985 138 17608072480638015094
2297311 6 15482672377841995175
23035841 295 18342458148920871843
23081809 10 18409442553780723965
23402539 116 18334577932569448221
23522609 53 18195214841648652797
23559900 14 17774719740888364689
23622692 88 16153429432632905509
2767999 5 7925910378833599434
28498 318 18343586265742742381
2916195 48 6050451405414724435
29717793 49 17060337422659493934
3004659 81 18059858359404768280
3009799 131 14261349150542446726
33382 64 18131354141629189274
33532 11 18272371966705723915
3411729 13 17242182249754852840
3472631 163 9799395755547186778
34797466 226 16271921597793173286
351380 3 18411422812797815746
397830 11 15069202055822990166
4073 2 18127971901975183954
4325135 7 17989484118127927494
46194498 28 16630525112158955814
465052 167 18334856113205853814
5104073 3 17968370127467112499
5207 217 10592039163408469917
54039377 194 18268148833645461334
559249 180 18335139787585705855
999808 66 17774709889029895659

> <PUBCHEM_SHAPE_MULTIPOLES>
417.23
19.87
1.74
0.86
5.21
0.03
-0.01
8.97
2.13
-0.69
0.18
0.05
0.07
-1.21

> <PUBCHEM_SHAPE_SELFOVERLAP>
908.303

> <PUBCHEM_SHAPE_VOLUME>
226.6

> <PUBCHEM_COORDINATE_TYPE>
2
5
10

$$$$

