17395995
  -OEChem-06241222532D

 43 44  0     1  0  0  0  0  0999 V2000
    3.0934    1.2853    0.0000 O   0  0  0  0  0  0  0  0  0  0  0  0
    6.3092   -0.1464    0.0000 O   0  0  0  0  0  0  0  0  0  0  0  0
    6.8038    1.0332    0.0000 O   0  0  0  0  0  0  0  0  0  0  0  0
    4.8147    0.8241    0.0000 N   0  0  0  0  0  0  0  0  0  0  0  0
    4.6456   -0.7851    0.0000 N   0  0  0  0  0  0  0  0  0  0  0  0
    6.6227    2.7557    0.0000 N   0  0  0  0  0  0  0  0  0  0  0  0
    3.7320   -0.3783    0.0000 C   0  0  3  0  0  0  0  0  0  0  0  0
    2.8660   -0.8783    0.0000 C   0  0  0  0  0  0  0  0  0  0  0  0
    3.8366    0.6162    0.0000 C   0  0  0  0  0  0  0  0  0  0  0  0
    5.2215    1.7376    0.0000 C   0  0  0  0  0  0  0  0  0  0  0  0
    5.3147   -0.0419    0.0000 C   0  0  0  0  0  0  0  0  0  0  0  0
    7.6172    2.8602    0.0000 C   0  0  3  0  0  0  0  0  0  0  0  0
    2.8660   -1.8783    0.0000 C   0  0  0  0  0  0  0  0  0  0  0  0
    6.2160    1.8422    0.0000 C   0  0  0  0  0  0  0  0  0  0  0  0
    8.0240    3.7738    0.0000 C   0  0  0  0  0  0  0  0  0  0  0  0
    8.2050    2.0512    0.0000 C   0  0  0  0  0  0  0  0  0  0  0  0
    2.0000   -2.3783    0.0000 C   0  0  0  0  0  0  0  0  0  0  0  0
    3.7320   -2.3783    0.0000 C   0  0  0  0  0  0  0  0  0  0  0  0
    9.0185    3.8783    0.0000 C   0  0  0  0  0  0  0  0  0  0  0  0
    2.0000   -3.3783    0.0000 C   0  0  0  0  0  0  0  0  0  0  0  0
    3.7320   -3.3783    0.0000 C   0  0  0  0  0  0  0  0  0  0  0  0
    2.8660   -3.8783    0.0000 C   0  0  0  0  0  0  0  0  0  0  0  0
    3.7645   -0.9975    0.0000 H   0  0  0  0  0  0  0  0  0  0  0  0
    2.6540   -0.2957    0.0000 H   0  0  0  0  0  0  0  0  0  0  0  0
    2.2554   -0.9860    0.0000 H   0  0  0  0  0  0  0  0  0  0  0  0
    4.7745   -1.3915    0.0000 H   0  0  0  0  0  0  0  0  0  0  0  0
    5.2647    2.3561    0.0000 H   0  0  0  0  0  0  0  0  0  0  0  0
    4.6199    1.8876    0.0000 H   0  0  0  0  0  0  0  0  0  0  0  0
    7.3651    2.2939    0.0000 H   0  0  0  0  0  0  0  0  0  0  0  0
    8.0672    4.3923    0.0000 H   0  0  0  0  0  0  0  0  0  0  0  0
    7.4224    3.9238    0.0000 H   0  0  0  0  0  0  0  0  0  0  0  0
    6.2583    3.2573    0.0000 H   0  0  0  0  0  0  0  0  0  0  0  0
    7.7034    1.6868    0.0000 H   0  0  0  0  0  0  0  0  0  0  0  0
    8.5695    1.5496    0.0000 H   0  0  0  0  0  0  0  0  0  0  0  0
    8.7066    2.4157    0.0000 H   0  0  0  0  0  0  0  0  0  0  0  0
    1.4631   -2.0683    0.0000 H   0  0  0  0  0  0  0  0  0  0  0  0
    4.2690   -2.0683    0.0000 H   0  0  0  0  0  0  0  0  0  0  0  0
    9.0833    3.2617    0.0000 H   0  0  0  0  0  0  0  0  0  0  0  0
    9.6351    3.9431    0.0000 H   0  0  0  0  0  0  0  0  0  0  0  0
    8.9537    4.4949    0.0000 H   0  0  0  0  0  0  0  0  0  0  0  0
    1.4631   -3.6883    0.0000 H   0  0  0  0  0  0  0  0  0  0  0  0
    4.2690   -3.6883    0.0000 H   0  0  0  0  0  0  0  0  0  0  0  0
    2.8660   -4.4983    0.0000 H   0  0  0  0  0  0  0  0  0  0  0  0
  1  9  2  0  0  0  0
  2 11  2  0  0  0  0
  3 14  2  0  0  0  0
  4  9  1  0  0  0  0
  4 10  1  0  0  0  0
  4 11  1  0  0  0  0
  5  7  1  0  0  0  0
  5 11  1  0  0  0  0
  5 26  1  0  0  0  0
  6 12  1  0  0  0  0
  6 14  1  0  0  0  0
  6 32  1  0  0  0  0
  7  8  1  0  0  0  0
  7  9  1  0  0  0  0
  7 23  1  0  0  0  0
  8 13  1  0  0  0  0
  8 24  1  0  0  0  0
  8 25  1  0  0  0  0
 10 14  1  0  0  0  0
 10 27  1  0  0  0  0
 10 28  1  0  0  0  0
 12 15  1  0  0  0  0
 12 16  1  0  0  0  0
 12 29  1  0  0  0  0
 13 17  2  0  0  0  0
 13 18  1  0  0  0  0
 15 19  1  0  0  0  0
 15 30  1  0  0  0  0
 15 31  1  0  0  0  0
 16 33  1  0  0  0  0
 16 34  1  0  0  0  0
 16 35  1  0  0  0  0
 17 20  1  0  0  0  0
 17 36  1  0  0  0  0
 18 21  2  0  0  0  0
 18 37  1  0  0  0  0
 19 38  1  0  0  0  0
 19 39  1  0  0  0  0
 19 40  1  0  0  0  0
 20 22  2  0  0  0  0
 20 41  1  0  0  0  0
 21 22  1  0  0  0  0
 21 42  1  0  0  0  0
 22 43  1  0  0  0  0
M  END
> <PUBCHEM_COMPOUND_CID>
17395995

> <PUBCHEM_COMPOUND_CANONICALIZED>
1

> <PUBCHEM_CACTVS_COMPLEXITY>
432

> <PUBCHEM_CACTVS_HBOND_ACCEPTOR>
3

> <PUBCHEM_CACTVS_HBOND_DONOR>
2

> <PUBCHEM_CACTVS_ROTATABLE_BOND>
6

> <PUBCHEM_CACTVS_SUBSKEYS>
AAADceB7MAAAAAAAAAAAAAAAAAAAAWAAAAAwAAAAAAAAAAABAAAAHgAQAAAADCjBmAQzAIPAAACIAiFSEAACAAAgAAAIiIGIAIiIYDKAkTGUIAAolyKIiAcYiICOAAAAAAAAAAAAAAAAAAAAAAAAAAAAAA==

> <PUBCHEM_IUPAC_OPENEYE_NAME>
2-(4-benzyl-2,5-dioxo-imidazolidin-1-yl)-N-sec-butyl-acetamide

> <PUBCHEM_IUPAC_CAS_NAME>
N-butan-2-yl-2-[2,5-dioxo-4-(phenylmethyl)-1-imidazolidinyl]acetamide

> <PUBCHEM_IUPAC_NAME>
2-(4-benzyl-2,5-dioxoimidazolidin-1-yl)-N-butan-2-ylacetamide

> <PUBCHEM_IUPAC_SYSTEMATIC_NAME>
2-[2,5-bis(oxidanylidene)-4-(phenylmethyl)imidazolidin-1-yl]-N-butan-2-yl-ethanamide

> <PUBCHEM_IUPAC_TRADITIONAL_NAME>
2-(4-benzyl-2,5-diketo-imidazolidin-1-yl)-N-sec-butyl-acetamide

> <PUBCHEM_IUPAC_INCHI>
InChI=1S/C16H21N3O3/c1-3-11(2)17-14(20)10-19-15(21)13(18-16(19)22)9-12-7-5-4-6-8-12/h4-8,11,13H,3,9-10H2,1-2H3,(H,17,20)(H,18,22)

> <PUBCHEM_IUPAC_INCHIKEY>
RPFWYLJVNZVINS-UHFFFAOYSA-N

> <PUBCHEM_XLOGP3_AA>
1.8

> <PUBCHEM_EXACT_MASS>
303.158292

> <PUBCHEM_MOLECULAR_FORMULA>
C16H21N3O3

> <PUBCHEM_MOLECULAR_WEIGHT>
303.35624

> <PUBCHEM_OPENEYE_CAN_SMILES>
CCC(C)NC(=O)CN1C(=O)C(NC1=O)CC2=CC=CC=C2

> <PUBCHEM_OPENEYE_ISO_SMILES>
CCC(C)NC(=O)CN1C(=O)C(NC1=O)CC2=CC=CC=C2

> <PUBCHEM_CACTVS_TPSA>
78.5

> <PUBCHEM_MONOISOTOPIC_WEIGHT>
303.158292

> <PUBCHEM_TOTAL_CHARGE>
0

> <PUBCHEM_HEAVY_ATOM_COUNT>
22

> <PUBCHEM_ATOM_DEF_STEREO_COUNT>
0

> <PUBCHEM_ATOM_UDEF_STEREO_COUNT>
2

> <PUBCHEM_BOND_DEF_STEREO_COUNT>
0

> <PUBCHEM_BOND_UDEF_STEREO_COUNT>
0

> <PUBCHEM_ISOTOPIC_ATOM_COUNT>
0

> <PUBCHEM_COMPONENT_COUNT>
1

> <PUBCHEM_CACTVS_TAUTO_COUNT>
8

> <PUBCHEM_COORDINATE_TYPE>
1
5
255

> <PUBCHEM_BONDANNOTATIONS>
12  16  3
13  17  8
13  18  8
17  20  8
18  21  8
20  22  8
21  22  8
7  8  3

$$$$

