9353
  -OEChem-06261203383D

 30 31  0     0  0  0  0  0  0999 V2000
    3.9210   -0.7917   -0.5192 N   0  0  0  0  0  0  0  0  0  0  0  0
   -1.2031    2.0719    0.1424 N   0  0  0  0  0  0  0  0  0  0  0  0
    2.6772   -0.3355    0.1264 C   0  0  0  0  0  0  0  0  0  0  0  0
    1.6770    0.1295   -0.9827 C   0  0  0  0  0  0  0  0  0  0  0  0
    0.3778    0.6656   -0.5286 C   0  0  0  0  0  0  0  0  0  0  0  0
   -0.8145   -0.0786   -0.3064 C   0  0  0  0  0  0  0  0  0  0  0  0
    3.0547    0.8106    1.0751 C   0  0  0  0  0  0  0  0  0  0  0  0
    2.1276   -1.5191    0.9346 C   0  0  0  0  0  0  0  0  0  0  0  0
   -1.7906    0.8272    0.1140 C   0  0  0  0  0  0  0  0  0  0  0  0
    0.1073    1.9843   -0.2446 C   0  0  0  0  0  0  0  0  0  0  0  0
   -1.1580   -1.4402   -0.4230 C   0  0  0  0  0  0  0  0  0  0  0  0
   -3.0984    0.4380    0.4251 C   0  0  0  0  0  0  0  0  0  0  0  0
   -2.4622   -1.8441   -0.1152 C   0  0  0  0  0  0  0  0  0  0  0  0
   -3.4159   -0.9178    0.3021 C   0  0  0  0  0  0  0  0  0  0  0  0
    2.1686    0.8981   -1.5974 H   0  0  0  0  0  0  0  0  0  0  0  0
    1.4961   -0.7087   -1.6706 H   0  0  0  0  0  0  0  0  0  0  0  0
    3.8315    0.5043    1.7864 H   0  0  0  0  0  0  0  0  0  0  0  0
    3.4340    1.6787    0.5237 H   0  0  0  0  0  0  0  0  0  0  0  0
    2.1953    1.1391    1.6693 H   0  0  0  0  0  0  0  0  0  0  0  0
    2.8686   -1.8898    1.6535 H   0  0  0  0  0  0  0  0  0  0  0  0
    1.8559   -2.3571    0.2829 H   0  0  0  0  0  0  0  0  0  0  0  0
    1.2429   -1.2349    1.5136 H   0  0  0  0  0  0  0  0  0  0  0  0
    0.7278    2.8689   -0.2821 H   0  0  0  0  0  0  0  0  0  0  0  0
    4.6007   -1.0704    0.1879 H   0  0  0  0  0  0  0  0  0  0  0  0
    4.3460   -0.0206   -1.0333 H   0  0  0  0  0  0  0  0  0  0  0  0
   -1.6719    2.9262    0.4103 H   0  0  0  0  0  0  0  0  0  0  0  0
   -0.4310   -2.1765   -0.7525 H   0  0  0  0  0  0  0  0  0  0  0  0
   -3.8416    1.1584    0.7500 H   0  0  0  0  0  0  0  0  0  0  0  0
   -2.7331   -2.8928   -0.2047 H   0  0  0  0  0  0  0  0  0  0  0  0
   -4.4232   -1.2534    0.5356 H   0  0  0  0  0  0  0  0  0  0  0  0
  1  3  1  0  0  0  0
  1 24  1  0  0  0  0
  1 25  1  0  0  0  0
  2  9  1  0  0  0  0
  2 10  1  0  0  0  0
  2 26  1  0  0  0  0
  3  4  1  0  0  0  0
  3  7  1  0  0  0  0
  3  8  1  0  0  0  0
  4  5  1  0  0  0  0
  4 15  1  0  0  0  0
  4 16  1  0  0  0  0
  5  6  1  0  0  0  0
  5 10  2  0  0  0  0
  6  9  1  0  0  0  0
  6 11  2  0  0  0  0
  7 17  1  0  0  0  0
  7 18  1  0  0  0  0
  7 19  1  0  0  0  0
  8 20  1  0  0  0  0
  8 21  1  0  0  0  0
  8 22  1  0  0  0  0
  9 12  2  0  0  0  0
 10 23  1  0  0  0  0
 11 13  1  0  0  0  0
 11 27  1  0  0  0  0
 12 14  1  0  0  0  0
 12 28  1  0  0  0  0
 13 14  2  0  0  0  0
 13 29  1  0  0  0  0
 14 30  1  0  0  0  0
M  END
> <PUBCHEM_COMPOUND_CID>
9353

> <PUBCHEM_CONFORMER_RMSD>
0.6

> <PUBCHEM_CONFORMER_DIVERSEORDER>
1
6
8
5
2
4
3
9
7

> <PUBCHEM_MMFF94_PARTIAL_CHARGES>
19
1 -0.99
10 -0.3
11 -0.15
12 -0.15
13 -0.15
14 -0.15
2 0.03
23 0.15
24 0.36
25 0.36
26 0.27
27 0.15
28 0.15
29 0.15
3 0.27
30 0.15
4 0.18
5 -0.18
9 -0.15

> <PUBCHEM_EFFECTIVE_ROTOR_COUNT>
2

> <PUBCHEM_PHARMACOPHORE_FEATURES>
7
1 1 cation
1 1 donor
1 2 cation
1 2 donor
3 3 7 8 hydrophobe
5 2 5 6 9 10 rings
6 6 9 11 12 13 14 rings

> <PUBCHEM_HEAVY_ATOM_COUNT>
14

> <PUBCHEM_ATOM_DEF_STEREO_COUNT>
0

> <PUBCHEM_ATOM_UDEF_STEREO_COUNT>
0

> <PUBCHEM_BOND_DEF_STEREO_COUNT>
0

> <PUBCHEM_BOND_UDEF_STEREO_COUNT>
0

> <PUBCHEM_ISOTOPIC_ATOM_COUNT>
0

> <PUBCHEM_COMPONENT_COUNT>
1

> <PUBCHEM_CACTVS_TAUTO_COUNT>
1

> <PUBCHEM_CONFORMER_ID>
0000248900000001

> <PUBCHEM_MMFF94_ENERGY>
18.4457

> <PUBCHEM_FEATURE_SELFOVERLAP>
35.612

> <PUBCHEM_SHAPE_FINGERPRINT>
10130415 120 18341325600863382851
10618630 7 18342740702013488386
11132069 177 18408891723892384210
11578080 2 17774182127058144084
12251169 10 18187367584305520136
12382932 28 18408608036891530075
12500047 106 18197223765524794020
13172582 1 18335410266865708175
13296908 3 18409731742201927150
14144814 61 18411418410240014115
15076042 46 18193843875265073330
15375462 189 18201716241044170427
15775835 57 18338512057665712106
16945 1 18411696599740810237
17804303 29 18261948669504370326
18175812 5 17822009804728621196
19049666 15 17534051154136081278
20361792 2 17275389793702815860
20510252 161 18115304604415786393
20528008 55 18187373124871302145
20645477 70 18052260592513378215
20653085 51 8141803936406779124
20871998 184 18260547852719243727
21501925 9 18263928731058351143
22445834 79 18200594816630465186
232386 152 18339634551547464055
23388829 49 18337398127885444855
23402539 116 18186808002424104117
23463225 33 18413385449416477327
23552423 10 17982163418906291557
23559900 14 18335703879736554052
2748010 2 17905590457157235189
3312278 4 18272649051924820171
427121 178 16303691058744465841
7364860 26 18119243956904181692
75552 356 18408884040211735279
81228 2 18338505452122386385

> <PUBCHEM_SHAPE_MULTIPOLES>
278.15
5.73
1.96
0.91
1.62
0.27
0.05
-1.83
0.9
-0.56
0.08
0.48
-0.04
-0.09

> <PUBCHEM_SHAPE_SELFOVERLAP>
593.248

> <PUBCHEM_SHAPE_VOLUME>
157.8

> <PUBCHEM_COORDINATE_TYPE>
2
5
10

$$$$

