17395677
  -OEChem-06241222512D

 38 40  0     1  0  0  0  0  0999 V2000
    7.1962    2.5194    0.0000 Cl  0  0  0  0  0  0  0  0  0  0  0  0
    2.8660    3.0194    0.0000 O   0  0  0  0  0  0  0  0  0  0  0  0
    3.7320    1.5194    0.0000 N   0  0  0  0  0  0  0  0  0  0  0  0
    2.8660   -2.9806    0.0000 N   0  0  0  0  0  0  0  0  0  0  0  0
    3.6750   -3.5684    0.0000 N   0  0  0  0  0  0  0  0  0  0  0  0
    2.3660   -4.5194    0.0000 N   0  0  0  0  0  0  0  0  0  0  0  0
    2.8660    1.0194    0.0000 C   0  0  3  0  0  0  0  0  0  0  0  0
    2.8660    0.0194    0.0000 C   0  0  0  0  0  0  0  0  0  0  0  0
    2.0000    1.5194    0.0000 C   0  0  0  0  0  0  0  0  0  0  0  0
    2.0000   -0.4806    0.0000 C   0  0  0  0  0  0  0  0  0  0  0  0
    3.7320   -0.4806    0.0000 C   0  0  0  0  0  0  0  0  0  0  0  0
    2.8660   -1.9806    0.0000 C   0  0  0  0  0  0  0  0  0  0  0  0
    2.0000   -1.4806    0.0000 C   0  0  0  0  0  0  0  0  0  0  0  0
    3.7320   -1.4806    0.0000 C   0  0  0  0  0  0  0  0  0  0  0  0
    3.7320    2.5194    0.0000 C   0  0  0  0  0  0  0  0  0  0  0  0
    4.5981    3.0194    0.0000 C   0  0  0  0  0  0  0  0  0  0  0  0
    5.4641    2.5194    0.0000 C   0  0  0  0  0  0  0  0  0  0  0  0
    4.5981    4.0194    0.0000 C   0  0  0  0  0  0  0  0  0  0  0  0
    2.0570   -3.5684    0.0000 C   0  0  0  0  0  0  0  0  0  0  0  0
    6.3301    3.0194    0.0000 C   0  0  0  0  0  0  0  0  0  0  0  0
    5.4641    4.5194    0.0000 C   0  0  0  0  0  0  0  0  0  0  0  0
    6.3301    4.0194    0.0000 C   0  0  0  0  0  0  0  0  0  0  0  0
    3.3660   -4.5194    0.0000 C   0  0  0  0  0  0  0  0  0  0  0  0
    2.8660    1.6394    0.0000 H   0  0  0  0  0  0  0  0  0  0  0  0
    2.3100    2.0564    0.0000 H   0  0  0  0  0  0  0  0  0  0  0  0
    1.4631    1.8294    0.0000 H   0  0  0  0  0  0  0  0  0  0  0  0
    1.6900    0.9825    0.0000 H   0  0  0  0  0  0  0  0  0  0  0  0
    4.2690    1.2094    0.0000 H   0  0  0  0  0  0  0  0  0  0  0  0
    1.4631   -0.1706    0.0000 H   0  0  0  0  0  0  0  0  0  0  0  0
    4.2690   -0.1706    0.0000 H   0  0  0  0  0  0  0  0  0  0  0  0
    1.4631   -1.7906    0.0000 H   0  0  0  0  0  0  0  0  0  0  0  0
    4.2690   -1.7906    0.0000 H   0  0  0  0  0  0  0  0  0  0  0  0
    5.4641    1.8994    0.0000 H   0  0  0  0  0  0  0  0  0  0  0  0
    4.0611    4.3294    0.0000 H   0  0  0  0  0  0  0  0  0  0  0  0
    1.4674   -3.3768    0.0000 H   0  0  0  0  0  0  0  0  0  0  0  0
    5.4641    5.1394    0.0000 H   0  0  0  0  0  0  0  0  0  0  0  0
    6.8671    4.3294    0.0000 H   0  0  0  0  0  0  0  0  0  0  0  0
    3.7304   -5.0210    0.0000 H   0  0  0  0  0  0  0  0  0  0  0  0
  1 20  1  0  0  0  0
  2 15  2  0  0  0  0
  3  7  1  0  0  0  0
  3 15  1  0  0  0  0
  3 28  1  0  0  0  0
  4  5  1  0  0  0  0
  4 12  1  0  0  0  0
  4 19  1  0  0  0  0
  5 23  2  0  0  0  0
  6 19  2  0  0  0  0
  6 23  1  0  0  0  0
  7  8  1  0  0  0  0
  7  9  1  0  0  0  0
  7 24  1  0  0  0  0
  8 10  2  0  0  0  0
  8 11  1  0  0  0  0
  9 25  1  0  0  0  0
  9 26  1  0  0  0  0
  9 27  1  0  0  0  0
 10 13  1  0  0  0  0
 10 29  1  0  0  0  0
 11 14  2  0  0  0  0
 11 30  1  0  0  0  0
 12 13  2  0  0  0  0
 12 14  1  0  0  0  0
 13 31  1  0  0  0  0
 14 32  1  0  0  0  0
 15 16  1  0  0  0  0
 16 17  2  0  0  0  0
 16 18  1  0  0  0  0
 17 20  1  0  0  0  0
 17 33  1  0  0  0  0
 18 21  2  0  0  0  0
 18 34  1  0  0  0  0
 19 35  1  0  0  0  0
 20 22  2  0  0  0  0
 21 22  1  0  0  0  0
 21 36  1  0  0  0  0
 22 37  1  0  0  0  0
 23 38  1  0  0  0  0
M  END
> <PUBCHEM_COMPOUND_CID>
17395677

> <PUBCHEM_COMPOUND_CANONICALIZED>
1

> <PUBCHEM_CACTVS_COMPLEXITY>
400

> <PUBCHEM_CACTVS_HBOND_ACCEPTOR>
3

> <PUBCHEM_CACTVS_HBOND_DONOR>
1

> <PUBCHEM_CACTVS_ROTATABLE_BOND>
4

> <PUBCHEM_CACTVS_SUBSKEYS>
AAADccB7oAAEAAAAAAAAAAAAAAAAAWAAAAAwYAAAAAAAAAAB0AAAHgIYAAAADCrBmCQ30IbIEACqAiVTdACSBCs1h4AdyIEIZsiIKDLBn5GEIQholgLIyacYiICOCAAAIAAAAAAQAABAAAAAAAAAAAAAAA==

> <PUBCHEM_IUPAC_OPENEYE_NAME>
3-chloro-N-[1-[4-(1,2,4-triazol-1-yl)phenyl]ethyl]benzamide

> <PUBCHEM_IUPAC_CAS_NAME>
3-chloro-N-[1-[4-(1,2,4-triazol-1-yl)phenyl]ethyl]benzamide

> <PUBCHEM_IUPAC_NAME>
3-chloro-N-[1-[4-(1,2,4-triazol-1-yl)phenyl]ethyl]benzamide

> <PUBCHEM_IUPAC_SYSTEMATIC_NAME>
3-chloranyl-N-[1-[4-(1,2,4-triazol-1-yl)phenyl]ethyl]benzamide

> <PUBCHEM_IUPAC_TRADITIONAL_NAME>
3-chloro-N-[1-[4-(1,2,4-triazol-1-yl)phenyl]ethyl]benzamide

> <PUBCHEM_IUPAC_INCHI>
InChI=1S/C17H15ClN4O/c1-12(21-17(23)14-3-2-4-15(18)9-14)13-5-7-16(8-6-13)22-11-19-10-20-22/h2-12H,1H3,(H,21,23)

> <PUBCHEM_IUPAC_INCHIKEY>
ASLIHVYPHGZCGP-UHFFFAOYSA-N

> <PUBCHEM_XLOGP3_AA>
3.5

> <PUBCHEM_EXACT_MASS>
326.093439

> <PUBCHEM_MOLECULAR_FORMULA>
C17H15ClN4O

> <PUBCHEM_MOLECULAR_WEIGHT>
326.7802

> <PUBCHEM_OPENEYE_CAN_SMILES>
CC(C1=CC=C(C=C1)N2C=NC=N2)NC(=O)C3=CC(=CC=C3)Cl

> <PUBCHEM_OPENEYE_ISO_SMILES>
CC(C1=CC=C(C=C1)N2C=NC=N2)NC(=O)C3=CC(=CC=C3)Cl

> <PUBCHEM_CACTVS_TPSA>
59.8

> <PUBCHEM_MONOISOTOPIC_WEIGHT>
326.093439

> <PUBCHEM_TOTAL_CHARGE>
0

> <PUBCHEM_HEAVY_ATOM_COUNT>
23

> <PUBCHEM_ATOM_DEF_STEREO_COUNT>
0

> <PUBCHEM_ATOM_UDEF_STEREO_COUNT>
1

> <PUBCHEM_BOND_DEF_STEREO_COUNT>
0

> <PUBCHEM_BOND_UDEF_STEREO_COUNT>
0

> <PUBCHEM_ISOTOPIC_ATOM_COUNT>
0

> <PUBCHEM_COMPONENT_COUNT>
1

> <PUBCHEM_CACTVS_TAUTO_COUNT>
2

> <PUBCHEM_COORDINATE_TYPE>
1
5
255

> <PUBCHEM_BONDANNOTATIONS>
10  13  8
11  14  8
12  13  8
12  14  8
16  17  8
16  18  8
17  20  8
18  21  8
20  22  8
21  22  8
4  19  8
4  5  8
5  23  8
6  19  8
6  23  8
7  9  3
8  10  8
8  11  8

$$$$

