11701
  -OEChem-06261206003D

 20 19  0     0  0  0  0  0  0999 V2000
    1.2920    1.0397    1.4724 O   0  0  0  0  0  0  0  0  0  0  0  0
    1.5705    1.5114   -0.7146 O   0  0  0  0  0  0  0  0  0  0  0  0
   -3.0166   -0.1629    0.4979 O   0  0  0  0  0  0  0  0  0  0  0  0
   -1.5561    1.0283   -0.7684 O   0  0  0  0  0  0  0  0  0  0  0  0
    0.6728   -0.6866   -0.1201 C   0  0  0  0  0  0  0  0  0  0  0  0
   -0.7278   -0.8527    0.5075 C   0  0  0  0  0  0  0  0  0  0  0  0
    1.6181   -1.6871    0.5888 C   0  0  0  0  0  0  0  0  0  0  0  0
    0.7173   -1.0190   -1.6205 C   0  0  0  0  0  0  0  0  0  0  0  0
    1.2133    0.7249    0.1555 C   0  0  0  0  0  0  0  0  0  0  0  0
   -1.7836    0.1039    0.0015 C   0  0  0  0  0  0  0  0  0  0  0  0
   -0.6767   -0.7147    1.5949 H   0  0  0  0  0  0  0  0  0  0  0  0
   -1.0911   -1.8699    0.3140 H   0  0  0  0  0  0  0  0  0  0  0  0
    2.6514   -1.5650    0.2429 H   0  0  0  0  0  0  0  0  0  0  0  0
    1.3166   -2.7228    0.3947 H   0  0  0  0  0  0  0  0  0  0  0  0
    1.6234   -1.5424    1.6753 H   0  0  0  0  0  0  0  0  0  0  0  0
    1.7407   -0.9615   -2.0094 H   0  0  0  0  0  0  0  0  0  0  0  0
    0.1149   -0.3192   -2.2083 H   0  0  0  0  0  0  0  0  0  0  0  0
    0.3394   -2.0290   -1.8139 H   0  0  0  0  0  0  0  0  0  0  0  0
    1.6503    1.9421    1.6124 H   0  0  0  0  0  0  0  0  0  0  0  0
   -3.6901    0.4675    0.1643 H   0  0  0  0  0  0  0  0  0  0  0  0
  1  9  1  0  0  0  0
  1 19  1  0  0  0  0
  2  9  2  0  0  0  0
  3 10  1  0  0  0  0
  3 20  1  0  0  0  0
  4 10  2  0  0  0  0
  5  6  1  0  0  0  0
  5  7  1  0  0  0  0
  5  8  1  0  0  0  0
  5  9  1  0  0  0  0
  6 10  1  0  0  0  0
  6 11  1  0  0  0  0
  6 12  1  0  0  0  0
  7 13  1  0  0  0  0
  7 14  1  0  0  0  0
  7 15  1  0  0  0  0
  8 16  1  0  0  0  0
  8 17  1  0  0  0  0
  8 18  1  0  0  0  0
M  END
> <PUBCHEM_COMPOUND_CID>
11701

> <PUBCHEM_CONFORMER_RMSD>
0.6

> <PUBCHEM_CONFORMER_DIVERSEORDER>
2
5
7
6
3
1
4

> <PUBCHEM_MMFF94_PARTIAL_CHARGES>
10
1 -0.65
10 0.66
19 0.5
2 -0.57
20 0.5
3 -0.65
4 -0.57
5 0.06
6 0.06
9 0.66

> <PUBCHEM_EFFECTIVE_ROTOR_COUNT>
3

> <PUBCHEM_PHARMACOPHORE_FEATURES>
7
1 1 acceptor
1 2 acceptor
1 3 acceptor
1 4 acceptor
3 1 2 9 anion
3 3 4 10 anion
3 5 7 8 hydrophobe

> <PUBCHEM_HEAVY_ATOM_COUNT>
10

> <PUBCHEM_ATOM_DEF_STEREO_COUNT>
0

> <PUBCHEM_ATOM_UDEF_STEREO_COUNT>
0

> <PUBCHEM_BOND_DEF_STEREO_COUNT>
0

> <PUBCHEM_BOND_UDEF_STEREO_COUNT>
0

> <PUBCHEM_ISOTOPIC_ATOM_COUNT>
0

> <PUBCHEM_COMPONENT_COUNT>
1

> <PUBCHEM_CACTVS_TAUTO_COUNT>
1

> <PUBCHEM_CONFORMER_ID>
00002DB500000002

> <PUBCHEM_MMFF94_ENERGY>
19.7921

> <PUBCHEM_FEATURE_SELFOVERLAP>
35.642

> <PUBCHEM_SHAPE_FINGERPRINT>
12423570 1 7958802784384787359
137420 1 14509224189958602146
14128692 85 17558252491495536566
16945 1 18342184357804060438
20653091 64 18339633555083363826
21040471 1 18191588540740750266
23235687 12 18186805807242238975
24536 1 18059588995956237957
29004967 10 17678460985279140055
5084963 1 18264490594052711218

> <PUBCHEM_SHAPE_MULTIPOLES>
182.32
2.83
1.55
1.23
2.31
0.1
0.21
0.02
-0.38
-0.89
-0.01
-0.4
-0.05
0.16

> <PUBCHEM_SHAPE_SELFOVERLAP>
352.594

> <PUBCHEM_SHAPE_VOLUME>
110.7

> <PUBCHEM_COORDINATE_TYPE>
2
5
10

$$$$

