10434
  -OEChem-06261204323D

 16 16  0     0  0  0  0  0  0999 V2000
   -2.3011   -0.9885    0.2721 O   0  0  0  0  0  0  0  0  0  0  0  0
    2.3010   -0.9886    0.2721 O   0  0  0  0  0  0  0  0  0  0  0  0
   -0.0001    1.7063    0.3693 C   0  0  0  0  0  0  0  0  0  0  0  0
   -1.2561    1.1026   -0.2416 C   0  0  0  0  0  0  0  0  0  0  0  0
    1.2562    1.1027   -0.2414 C   0  0  0  0  0  0  0  0  0  0  0  0
    0.0001   -1.1466   -0.3599 C   0  0  0  0  0  0  0  0  0  0  0  0
   -1.2677   -0.3941   -0.0352 C   0  0  0  0  0  0  0  0  0  0  0  0
    1.2677   -0.3940   -0.0354 C   0  0  0  0  0  0  0  0  0  0  0  0
   -0.0001    2.7908    0.2136 H   0  0  0  0  0  0  0  0  0  0  0  0
   -0.0001    1.5311    1.4528 H   0  0  0  0  0  0  0  0  0  0  0  0
   -1.3114    1.3044   -1.3166 H   0  0  0  0  0  0  0  0  0  0  0  0
   -2.1425    1.5329    0.2364 H   0  0  0  0  0  0  0  0  0  0  0  0
    2.1424    1.5329    0.2368 H   0  0  0  0  0  0  0  0  0  0  0  0
    1.3118    1.3047   -1.3163 H   0  0  0  0  0  0  0  0  0  0  0  0
    0.0001   -2.0792    0.2141 H   0  0  0  0  0  0  0  0  0  0  0  0
    0.0000   -1.3756   -1.4298 H   0  0  0  0  0  0  0  0  0  0  0  0
  1  7  2  0  0  0  0
  2  8  2  0  0  0  0
  3  4  1  0  0  0  0
  3  5  1  0  0  0  0
  3  9  1  0  0  0  0
  3 10  1  0  0  0  0
  4  7  1  0  0  0  0
  4 11  1  0  0  0  0
  4 12  1  0  0  0  0
  5  8  1  0  0  0  0
  5 13  1  0  0  0  0
  5 14  1  0  0  0  0
  6  7  1  0  0  0  0
  6  8  1  0  0  0  0
  6 15  1  0  0  0  0
  6 16  1  0  0  0  0
M  END
> <PUBCHEM_COMPOUND_CID>
10434

> <PUBCHEM_CONFORMER_RMSD>
0.4

> <PUBCHEM_CONFORMER_DIVERSEORDER>
1

> <PUBCHEM_MMFF94_PARTIAL_CHARGES>
7
1 -0.57
2 -0.57
4 0.06
5 0.06
6 0.12
7 0.45
8 0.45

> <PUBCHEM_EFFECTIVE_ROTOR_COUNT>
0.8

> <PUBCHEM_PHARMACOPHORE_FEATURES>
4
1 1 acceptor
1 2 acceptor
1 6 anion
6 3 4 5 6 7 8 rings

> <PUBCHEM_HEAVY_ATOM_COUNT>
8

> <PUBCHEM_ATOM_DEF_STEREO_COUNT>
0

> <PUBCHEM_ATOM_UDEF_STEREO_COUNT>
0

> <PUBCHEM_BOND_DEF_STEREO_COUNT>
0

> <PUBCHEM_BOND_UDEF_STEREO_COUNT>
0

> <PUBCHEM_ISOTOPIC_ATOM_COUNT>
0

> <PUBCHEM_COMPONENT_COUNT>
1

> <PUBCHEM_CACTVS_TAUTO_COUNT>
5

> <PUBCHEM_CONFORMER_ID>
000028C200000001

> <PUBCHEM_MMFF94_ENERGY>
5.3129

> <PUBCHEM_FEATURE_SELFOVERLAP>
20.297

> <PUBCHEM_SHAPE_FINGERPRINT>
18185500 45 18119812412989417086
21040471 1 17041197935760229965
23552423 10 18201432610283962310
29004967 10 18128533760827667689

> <PUBCHEM_SHAPE_MULTIPOLES>
152.9
2.47
1.71
0.66
0
0.45
0.02
-0.82
-0.21
0
-0.06
0
0.03
0

> <PUBCHEM_SHAPE_SELFOVERLAP>
303.754

> <PUBCHEM_SHAPE_VOLUME>
90

> <PUBCHEM_COORDINATE_TYPE>
2
5
10

$$$$

