854109
  -OEChem-06241222473D

 40 43  0     0  0  0  0  0  0999 V2000
    2.1625    1.7284   -0.0114 O   0  0  0  0  0  0  0  0  0  0  0  0
   -1.9428   -0.6947   -0.0307 O   0  0  0  0  0  0  0  0  0  0  0  0
    4.0650    2.9846   -0.0032 O   0  0  0  0  0  0  0  0  0  0  0  0
    2.2525   -0.7128   -0.0030 C   0  0  0  0  0  0  0  0  0  0  0  0
    3.7185   -0.6329    0.0058 C   0  0  0  0  0  0  0  0  0  0  0  0
    1.5159    0.4740   -0.0114 C   0  0  0  0  0  0  0  0  0  0  0  0
    4.3407    0.6278    0.0059 C   0  0  0  0  0  0  0  0  0  0  0  0
    1.5160   -1.9088   -0.0042 C   0  0  0  0  0  0  0  0  0  0  0  0
   -0.5829   -0.6969   -0.0215 C   0  0  0  0  0  0  0  0  0  0  0  0
    0.1189    0.5017   -0.0204 C   0  0  0  0  0  0  0  0  0  0  0  0
    4.5541   -1.7658    0.0140 C   0  0  0  0  0  0  0  0  0  0  0  0
    0.1149   -1.9012   -0.0133 C   0  0  0  0  0  0  0  0  0  0  0  0
    3.5426    1.8773   -0.0028 C   0  0  0  0  0  0  0  0  0  0  0  0
   -2.5912    0.5768   -0.0388 C   0  0  0  0  0  0  0  0  0  0  0  0
    5.7398    0.7471    0.0141 C   0  0  0  0  0  0  0  0  0  0  0  0
   -4.0771    0.3690   -0.0162 C   0  0  0  0  0  0  0  0  0  0  0  0
    5.9471   -1.6472    0.0223 C   0  0  0  0  0  0  0  0  0  0  0  0
    6.5396   -0.3913    0.0224 C   0  0  0  0  0  0  0  0  0  0  0  0
   -4.7425    0.2896    1.2019 C   0  0  0  0  0  0  0  0  0  0  0  0
   -4.7746    0.2572   -1.2135 C   0  0  0  0  0  0  0  0  0  0  0  0
   -6.8304   -0.0170    0.0256 C   0  0  0  0  0  0  0  0  0  0  0  0
   -6.1237    0.0960    1.2229 C   0  0  0  0  0  0  0  0  0  0  0  0
   -6.1558    0.0636   -1.1925 C   0  0  0  0  0  0  0  0  0  0  0  0
   -8.3071   -0.2244    0.0481 C   0  0  0  0  0  0  0  0  0  0  0  0
    2.0061   -2.8783    0.0019 H   0  0  0  0  0  0  0  0  0  0  0  0
   -0.3509    1.4790   -0.0288 H   0  0  0  0  0  0  0  0  0  0  0  0
    4.1448   -2.7724    0.0142 H   0  0  0  0  0  0  0  0  0  0  0  0
   -0.4238   -2.8454   -0.0141 H   0  0  0  0  0  0  0  0  0  0  0  0
   -2.3282    1.1415   -0.9432 H   0  0  0  0  0  0  0  0  0  0  0  0
   -2.3116    1.1642    0.8460 H   0  0  0  0  0  0  0  0  0  0  0  0
    6.2234    1.7205    0.0143 H   0  0  0  0  0  0  0  0  0  0  0  0
    6.5660   -2.5399    0.0286 H   0  0  0  0  0  0  0  0  0  0  0  0
    7.6214   -0.2979    0.0288 H   0  0  0  0  0  0  0  0  0  0  0  0
   -4.2019    0.3732    2.1406 H   0  0  0  0  0  0  0  0  0  0  0  0
   -4.2591    0.3155   -2.1682 H   0  0  0  0  0  0  0  0  0  0  0  0
   -6.6376    0.0324    2.1783 H   0  0  0  0  0  0  0  0  0  0  0  0
   -6.6949   -0.0255   -2.1320 H   0  0  0  0  0  0  0  0  0  0  0  0
   -8.7589    0.2472    0.9274 H   0  0  0  0  0  0  0  0  0  0  0  0
   -8.7821    0.2201   -0.8331 H   0  0  0  0  0  0  0  0  0  0  0  0
   -8.5358   -1.2946    0.0675 H   0  0  0  0  0  0  0  0  0  0  0  0
  1  6  1  0  0  0  0
  1 13  1  0  0  0  0
  2  9  1  0  0  0  0
  2 14  1  0  0  0  0
  3 13  2  0  0  0  0
  4  5  1  0  0  0  0
  4  6  2  0  0  0  0
  4  8  1  0  0  0  0
  5  7  1  0  0  0  0
  5 11  2  0  0  0  0
  6 10  1  0  0  0  0
  7 13  1  0  0  0  0
  7 15  2  0  0  0  0
  8 12  2  0  0  0  0
  8 25  1  0  0  0  0
  9 10  2  0  0  0  0
  9 12  1  0  0  0  0
 10 26  1  0  0  0  0
 11 17  1  0  0  0  0
 11 27  1  0  0  0  0
 12 28  1  0  0  0  0
 14 16  1  0  0  0  0
 14 29  1  0  0  0  0
 14 30  1  0  0  0  0
 15 18  1  0  0  0  0
 15 31  1  0  0  0  0
 16 19  2  0  0  0  0
 16 20  1  0  0  0  0
 17 18  2  0  0  0  0
 17 32  1  0  0  0  0
 18 33  1  0  0  0  0
 19 22  1  0  0  0  0
 19 34  1  0  0  0  0
 20 23  2  0  0  0  0
 20 35  1  0  0  0  0
 21 22  2  0  0  0  0
 21 23  1  0  0  0  0
 21 24  1  0  0  0  0
 22 36  1  0  0  0  0
 23 37  1  0  0  0  0
 24 38  1  0  0  0  0
 24 39  1  0  0  0  0
 24 40  1  0  0  0  0
M  END
> <PUBCHEM_COMPOUND_CID>
854109

> <PUBCHEM_CONFORMER_RMSD>
0.6

> <PUBCHEM_CONFORMER_DIVERSEORDER>
1
22
37
12
11
33
44
20
30
36
5
21
27
29
26
2
25
39
23
15
8
16
4
24
7
34
19
3
43
14
45
35
6
9
32
10
31
17
46
28
40
38
18
42
41
13

> <PUBCHEM_MMFF94_PARTIAL_CHARGES>
33
1 -0.23
10 -0.15
11 -0.15
12 -0.15
13 0.63
14 0.42
15 -0.15
16 -0.14
17 -0.15
18 -0.15
19 -0.15
2 -0.36
20 -0.15
21 -0.14
22 -0.15
23 -0.15
24 0.14
25 0.15
26 0.15
27 0.15
28 0.15
3 -0.57
31 0.15
32 0.15
33 0.15
34 0.15
35 0.15
36 0.15
37 0.15
6 0.08
7 0.09
8 -0.15
9 0.08

> <PUBCHEM_EFFECTIVE_ROTOR_COUNT>
3

> <PUBCHEM_PHARMACOPHORE_FEATURES>
6
1 2 acceptor
1 3 acceptor
6 1 4 5 6 7 13 rings
6 16 19 20 21 22 23 rings
6 4 6 8 9 10 12 rings
6 5 7 11 15 17 18 rings

> <PUBCHEM_HEAVY_ATOM_COUNT>
24

> <PUBCHEM_ATOM_DEF_STEREO_COUNT>
0

> <PUBCHEM_ATOM_UDEF_STEREO_COUNT>
0

> <PUBCHEM_BOND_DEF_STEREO_COUNT>
0

> <PUBCHEM_BOND_UDEF_STEREO_COUNT>
0

> <PUBCHEM_ISOTOPIC_ATOM_COUNT>
0

> <PUBCHEM_COMPONENT_COUNT>
1

> <PUBCHEM_CACTVS_TAUTO_COUNT>
1

> <PUBCHEM_CONFORMER_ID>
000D085D00000001

> <PUBCHEM_MMFF94_ENERGY>
87.9621

> <PUBCHEM_FEATURE_SELFOVERLAP>
30.494

> <PUBCHEM_SHAPE_FINGERPRINT>
10 15 17775287132117337128
10299344 5 17967534571649967807
10411042 1 18050286170715738670
10688039 33 18060137682577107436
10763959 59 18131918164866116188
11045977 3 17988918951159108771
11315181 36 17749109990044141683
11578080 2 17097514002944976722
11719270 70 18409171042743472771
11796584 16 4895547502485518749
12166972 35 18408040710404033096
12236239 1 17749390386308840651
12403259 415 17988651804420105397
12616971 3 18113905952874237141
12730499 353 18201719569649443746
12838862 33 18338250297585941400
13167372 99 18188204403091515049
13533116 47 17894630396561086258
14170010 4 18411139134729651136
14251764 18 18113337509288320164
14294032 229 16517349188750656953
14464042 87 17822004332977593096
14849402 71 18040999492710241600
14856354 85 16805324371531771477
14933364 13 18272089409576199869
15183329 4 18186799179722371598
15419008 47 17561369487133890325
15475509 35 16629982009439489016
15483637 11 18123753311867597308
17844677 252 18411978096430059085
19489759 90 16056880243715602181
20028762 73 18114183072696659102
20157964 124 18408604756011262926
20612939 158 18409449171919060548
21033648 29 17774457030618496061
21033650 10 15648148877052176138
21267235 1 18337950208136755718
21315759 40 17530966899709087671
21315763 28 18409167731966460193
21792961 116 18059006307267197094
221357 26 18411985784194685052
22224240 67 18343865506909684963
22956985 138 14043807566667969408
23522609 53 17677871497282473553
23536379 177 16226045612979485159
23559900 14 18341615880085350193
23569943 247 17754725358451493614
249057 3 18409166606754159262
255183 451 17826222176253364366
29717793 49 17603580825055412476
3178227 256 18413385453780192074
335352 9 18410007733428645118
34797466 226 14562812123032479001
350125 39 18410854399625278188
3545911 37 18272370867293900375
397830 11 17559662946139342153
4073 2 18059851706020808083
4325135 7 18113900472807086583
4340502 62 16774080683049801002
5104073 3 18339928091546336434
5283156 175 17675924318139456195
54446538 1 18333730234584235865

> <PUBCHEM_SHAPE_MULTIPOLES>
476.3
20.68
1.86
0.86
24.36
0.5
0
-0.11
-0.27
-3.68
0
1.38
0.03
-0.03

> <PUBCHEM_SHAPE_SELFOVERLAP>
1060.623

> <PUBCHEM_SHAPE_VOLUME>
253.8

> <PUBCHEM_COORDINATE_TYPE>
2
5
10

$$$$

