4723
  -OEChem-06261200183D

 21 22  0     1  0  0  0  0  0999 V2000
    1.3847   -0.7917    0.8475 O   0  0  0  0  0  0  0  0  0  0  0  0
    0.9803    2.2988   -0.6638 O   0  0  0  0  0  0  0  0  0  0  0  0
    2.4673    0.5249   -0.6270 N   0  0  0  0  0  0  0  0  0  0  0  0
    3.3274   -1.6305   -0.0238 N   0  0  0  0  0  0  0  0  0  0  0  0
    0.6037    0.4056    0.7930 C   0  0  2  0  0  0  0  0  0  0  0  0
   -0.7891    0.0736    0.3751 C   0  0  0  0  0  0  0  0  0  0  0  0
    1.3427    1.2085   -0.2425 C   0  0  0  0  0  0  0  0  0  0  0  0
   -1.8365    0.9400    0.6885 C   0  0  0  0  0  0  0  0  0  0  0  0
   -1.0443   -1.1030   -0.3294 C   0  0  0  0  0  0  0  0  0  0  0  0
    2.4438   -0.5962    0.0120 C   0  0  0  0  0  0  0  0  0  0  0  0
   -3.1390    0.6298    0.2976 C   0  0  0  0  0  0  0  0  0  0  0  0
   -2.3469   -1.4131   -0.7203 C   0  0  0  0  0  0  0  0  0  0  0  0
   -3.3942   -0.5467   -0.4069 C   0  0  0  0  0  0  0  0  0  0  0  0
    0.6504    0.8938    1.7716 H   0  0  0  0  0  0  0  0  0  0  0  0
   -1.6492    1.8600    1.2360 H   0  0  0  0  0  0  0  0  0  0  0  0
   -0.2538   -1.7960   -0.6026 H   0  0  0  0  0  0  0  0  0  0  0  0
   -3.9544    1.3046    0.5411 H   0  0  0  0  0  0  0  0  0  0  0  0
   -2.5458   -2.3276   -1.2715 H   0  0  0  0  0  0  0  0  0  0  0  0
   -4.4082   -0.7878   -0.7120 H   0  0  0  0  0  0  0  0  0  0  0  0
    3.1854   -2.4650    0.5348 H   0  0  0  0  0  0  0  0  0  0  0  0
    4.1535   -1.5985   -0.6111 H   0  0  0  0  0  0  0  0  0  0  0  0
  1  5  1  0  0  0  0
  1 10  1  0  0  0  0
  2  7  2  0  0  0  0
  3  7  1  0  0  0  0
  3 10  2  0  0  0  0
  4 10  1  0  0  0  0
  4 20  1  0  0  0  0
  4 21  1  0  0  0  0
  5  6  1  0  0  0  0
  5  7  1  0  0  0  0
  5 14  1  0  0  0  0
  6  8  2  0  0  0  0
  6  9  1  0  0  0  0
  8 11  1  0  0  0  0
  8 15  1  0  0  0  0
  9 12  2  0  0  0  0
  9 16  1  0  0  0  0
 11 13  2  0  0  0  0
 11 17  1  0  0  0  0
 12 13  1  0  0  0  0
 12 18  1  0  0  0  0
 13 19  1  0  0  0  0
M  END
> <PUBCHEM_COMPOUND_CID>
4723

> <PUBCHEM_CONFORMER_RMSD>
0.4

> <PUBCHEM_CONFORMER_DIVERSEORDER>
2
1

> <PUBCHEM_MMFF94_PARTIAL_CHARGES>
20
1 -0.43
10 0.65
11 -0.15
12 -0.15
13 -0.15
15 0.15
16 0.15
17 0.15
18 0.15
19 0.15
2 -0.57
20 0.4
21 0.4
3 -0.66
4 -0.85
5 0.48
6 -0.14
7 0.72
8 -0.15
9 -0.15

> <PUBCHEM_EFFECTIVE_ROTOR_COUNT>
1.4

> <PUBCHEM_PHARMACOPHORE_FEATURES>
5
1 2 acceptor
1 3 donor
1 4 donor
5 1 3 5 7 10 rings
6 6 8 9 11 12 13 rings

> <PUBCHEM_HEAVY_ATOM_COUNT>
13

> <PUBCHEM_ATOM_DEF_STEREO_COUNT>
0

> <PUBCHEM_ATOM_UDEF_STEREO_COUNT>
1

> <PUBCHEM_BOND_DEF_STEREO_COUNT>
0

> <PUBCHEM_BOND_UDEF_STEREO_COUNT>
0

> <PUBCHEM_ISOTOPIC_ATOM_COUNT>
0

> <PUBCHEM_COMPONENT_COUNT>
1

> <PUBCHEM_CACTVS_TAUTO_COUNT>
3

> <PUBCHEM_CONFORMER_ID>
0000127300000002

> <PUBCHEM_MMFF94_ENERGY>
26.2352

> <PUBCHEM_FEATURE_SELFOVERLAP>
25.404

> <PUBCHEM_SHAPE_FINGERPRINT>
10465860 71 18261655048349350542
11769659 78 18187653500304872991
12202030 40 15142065579215090501
12932764 1 17677329390546025059
13571099 22 18408892840794864743
14128692 85 18334295353131819896
14144814 61 18408603660499177427
14993402 34 18410853295549079831
15219459 52 18411134714643872687
15775835 57 18342731901820762429
16945 1 18267861679465639521
18186145 218 17917441904051407615
18511873 20 18335700589390678571
19422 9 18409442553864996459
20645476 183 18337102350736483495
20653085 51 18060145332097964397
207724 885 18411696625336417243
232386 152 17894352167962148182
23463225 33 18336264660109427286
23552423 10 18266463109512982255
23559900 14 17603868949000154314
2748010 2 16103336439138895099
369184 2 7925639899268442019
5084963 1 18335706039772762057
6992083 37 18191291870201732873
7364860 26 18188776024494132096
74978 22 18412546474952759735
8030462 33 18263079925071699173
9939556 21 18408884001683643245

> <PUBCHEM_SHAPE_MULTIPOLES>
245.83
5.18
1.7
0.86
0.51
0.24
-0.03
-1.44
0.45
-0.48
0.31
-0.01
0.08
-0.67

> <PUBCHEM_SHAPE_SELFOVERLAP>
535.254

> <PUBCHEM_SHAPE_VOLUME>
134.8

> <PUBCHEM_COORDINATE_TYPE>
2
5
10

$$$$

