7080
  -OEChem-06261201443D

 30 33  0     0  0  0  0  0  0999 V2000
    0.0000   -0.7046   -0.0001 C   0  0  0  0  0  0  0  0  0  0  0  0
    0.0000    0.7045   -0.0002 C   0  0  0  0  0  0  0  0  0  0  0  0
   -2.4511   -0.7058    0.0002 C   0  0  0  0  0  0  0  0  0  0  0  0
   -2.4510    0.7058    0.0000 C   0  0  0  0  0  0  0  0  0  0  0  0
    2.4511   -0.7058   -0.0001 C   0  0  0  0  0  0  0  0  0  0  0  0
    2.4511    0.7057    0.0001 C   0  0  0  0  0  0  0  0  0  0  0  0
    1.2254   -1.3924   -0.0003 C   0  0  0  0  0  0  0  0  0  0  0  0
    1.2254    1.3923   -0.0001 C   0  0  0  0  0  0  0  0  0  0  0  0
   -1.2255   -1.3923    0.0002 C   0  0  0  0  0  0  0  0  0  0  0  0
   -1.2254    1.3923   -0.0002 C   0  0  0  0  0  0  0  0  0  0  0  0
   -3.6764   -1.3929    0.0002 C   0  0  0  0  0  0  0  0  0  0  0  0
   -3.6764    1.3928   -0.0001 C   0  0  0  0  0  0  0  0  0  0  0  0
    3.6765   -1.3929   -0.0001 C   0  0  0  0  0  0  0  0  0  0  0  0
    3.6764    1.3929    0.0003 C   0  0  0  0  0  0  0  0  0  0  0  0
   -4.8847   -0.6955    0.0001 C   0  0  0  0  0  0  0  0  0  0  0  0
   -4.8846    0.6957   -0.0001 C   0  0  0  0  0  0  0  0  0  0  0  0
    4.8847   -0.6956   -0.0001 C   0  0  0  0  0  0  0  0  0  0  0  0
    4.8846    0.6957    0.0004 C   0  0  0  0  0  0  0  0  0  0  0  0
    1.2254   -2.4825   -0.0003 H   0  0  0  0  0  0  0  0  0  0  0  0
    1.2253    2.4825   -0.0001 H   0  0  0  0  0  0  0  0  0  0  0  0
   -1.2255   -2.4824    0.0003 H   0  0  0  0  0  0  0  0  0  0  0  0
   -1.2254    2.4824   -0.0003 H   0  0  0  0  0  0  0  0  0  0  0  0
   -3.7001   -2.4808    0.0003 H   0  0  0  0  0  0  0  0  0  0  0  0
   -3.6999    2.4807   -0.0002 H   0  0  0  0  0  0  0  0  0  0  0  0
    3.7001   -2.4807   -0.0003 H   0  0  0  0  0  0  0  0  0  0  0  0
    3.6999    2.4807    0.0004 H   0  0  0  0  0  0  0  0  0  0  0  0
   -5.8249   -1.2392    0.0002 H   0  0  0  0  0  0  0  0  0  0  0  0
   -5.8248    1.2393   -0.0002 H   0  0  0  0  0  0  0  0  0  0  0  0
    5.8249   -1.2392   -0.0002 H   0  0  0  0  0  0  0  0  0  0  0  0
    5.8248    1.2394    0.0005 H   0  0  0  0  0  0  0  0  0  0  0  0
  1  2  1  0  0  0  0
  1  7  2  0  0  0  0
  1  9  1  0  0  0  0
  2  8  2  0  0  0  0
  2 10  1  0  0  0  0
  3  4  1  0  0  0  0
  3  9  2  0  0  0  0
  3 11  1  0  0  0  0
  4 10  2  0  0  0  0
  4 12  1  0  0  0  0
  5  6  1  0  0  0  0
  5  7  1  0  0  0  0
  5 13  2  0  0  0  0
  6  8  1  0  0  0  0
  6 14  2  0  0  0  0
  7 19  1  0  0  0  0
  8 20  1  0  0  0  0
  9 21  1  0  0  0  0
 10 22  1  0  0  0  0
 11 15  2  0  0  0  0
 11 23  1  0  0  0  0
 12 16  2  0  0  0  0
 12 24  1  0  0  0  0
 13 17  1  0  0  0  0
 13 25  1  0  0  0  0
 14 18  1  0  0  0  0
 14 26  1  0  0  0  0
 15 16  1  0  0  0  0
 15 27  1  0  0  0  0
 16 28  1  0  0  0  0
 17 18  2  0  0  0  0
 17 29  1  0  0  0  0
 18 30  1  0  0  0  0
M  END
> <PUBCHEM_COMPOUND_CID>
7080

> <PUBCHEM_CONFORMER_RMSD>
0.4

> <PUBCHEM_CONFORMER_DIVERSEORDER>
1

> <PUBCHEM_MMFF94_PARTIAL_CHARGES>
24
10 -0.15
11 -0.15
12 -0.15
13 -0.15
14 -0.15
15 -0.15
16 -0.15
17 -0.15
18 -0.15
19 0.15
20 0.15
21 0.15
22 0.15
23 0.15
24 0.15
25 0.15
26 0.15
27 0.15
28 0.15
29 0.15
30 0.15
7 -0.15
8 -0.15
9 -0.15

> <PUBCHEM_EFFECTIVE_ROTOR_COUNT>
0

> <PUBCHEM_PHARMACOPHORE_FEATURES>
4
6 1 2 3 4 9 10 rings
6 1 2 5 6 7 8 rings
6 3 4 11 12 15 16 rings
6 5 6 13 14 17 18 rings

> <PUBCHEM_HEAVY_ATOM_COUNT>
18

> <PUBCHEM_ATOM_DEF_STEREO_COUNT>
0

> <PUBCHEM_ATOM_UDEF_STEREO_COUNT>
0

> <PUBCHEM_BOND_DEF_STEREO_COUNT>
0

> <PUBCHEM_BOND_UDEF_STEREO_COUNT>
0

> <PUBCHEM_ISOTOPIC_ATOM_COUNT>
0

> <PUBCHEM_COMPONENT_COUNT>
1

> <PUBCHEM_CACTVS_TAUTO_COUNT>
1

> <PUBCHEM_CONFORMER_ID>
00001BA800000001

> <PUBCHEM_MMFF94_ENERGY>
59.3119

> <PUBCHEM_FEATURE_SELFOVERLAP>
20.374

> <PUBCHEM_SHAPE_FINGERPRINT>
10616163 171 18336826394666498071
11401426 45 18410295804419937763
11471102 20 18410294713756720492
11806522 49 18411982442372037812
12107183 9 17690280829719196209
12236239 1 18410575088958046217
12403259 415 18410864256221846604
13167823 11 18410857663446631495
13288520 33 18408601478492234798
13533116 47 13912592905982118156
13675066 3 18410856525280051306
13862211 1 18410860961981605767
15196674 1 18410855464423129089
15536298 74 18407759239890301954
15788980 27 17917990589911991217
17804303 29 18408602548044800777
17834072 33 18334859393991090654
1813 80 17060337431191451908
18186145 218 17846504733225129166
18522853 276 18407759239679415928
19141452 34 18334857195474516695
200 152 18041000635376444779
20645477 70 18335137635290418470
21267235 1 18410566288570381506
21279426 13 18266458895859843500
21421861 104 17772476938967731946
21452121 103 18188783747367544136
221490 88 18269549442825784723
23402539 116 18333739009202057943
23402655 69 18335140903348710165
23559900 14 18335423448321098608
2871803 45 18343869930461943662
3004659 81 18343580781270225166
335352 9 18338799021436436926
34797466 226 17095517345157276340
34934 24 18410579482715105122
3545911 37 18410572889934803668
4214541 1 18410574011185330309
474 4 17417243213815761252
4921388 177 16271634595235854875
4990 188 18113892780225267012
5104073 3 18410573985151452104
69090 78 18408044004606492967
7495541 125 17241051993980459947
77779 3 18410573989446418436
9709674 26 18410004438213263438

> <PUBCHEM_SHAPE_MULTIPOLES>
370.43
10.59
1.75
0.62
0
0
0
0
0
0
0
0
0
0

> <PUBCHEM_SHAPE_SELFOVERLAP>
853.842

> <PUBCHEM_SHAPE_VOLUME>
171.5

> <PUBCHEM_COORDINATE_TYPE>
2
5
10

$$$$

