17395587
  -OEChem-06241222513D

 39 40  0     1  0  0  0  0  0999 V2000
    4.5926   -3.3364    0.1303 F   0  0  0  0  0  0  0  0  0  0  0  0
   -1.1571    0.4693    1.2796 O   0  0  0  0  0  0  0  0  0  0  0  0
   -5.4315   -0.7928   -0.8926 O   0  0  0  0  0  0  0  0  0  0  0  0
    0.9653    1.8502    0.1954 N   0  0  2  0  0  0  0  0  0  0  0  0
   -2.0671    0.2373   -0.8734 N   0  0  0  0  0  0  0  0  0  0  0  0
   -4.2742   -0.4238   -1.5675 N   0  0  0  0  0  0  0  0  0  0  0  0
    2.3784    1.8466   -0.1813 C   0  0  2  0  0  0  0  0  0  0  0  0
    2.9733    0.4550   -0.0972 C   0  0  0  0  0  0  0  0  0  0  0  0
    0.2071    0.9333   -0.6550 C   0  0  0  0  0  0  0  0  0  0  0  0
    3.1410    2.8452    0.6924 C   0  0  0  0  0  0  0  0  0  0  0  0
    0.4160    3.2026    0.1060 C   0  0  0  0  0  0  0  0  0  0  0  0
    3.9756    0.0700   -0.9877 C   0  0  0  0  0  0  0  0  0  0  0  0
    2.5179   -0.4409    0.8701 C   0  0  0  0  0  0  0  0  0  0  0  0
   -1.0702    0.5225    0.0570 C   0  0  0  0  0  0  0  0  0  0  0  0
    4.5225   -1.2107   -0.9109 C   0  0  0  0  0  0  0  0  0  0  0  0
    3.0649   -1.7218    0.9469 C   0  0  0  0  0  0  0  0  0  0  0  0
    4.0672   -2.1067    0.0563 C   0  0  0  0  0  0  0  0  0  0  0  0
   -3.3800   -0.1707   -0.6076 C   0  0  0  0  0  0  0  0  0  0  0  0
   -3.9108   -0.3612    0.6798 C   0  0  0  0  0  0  0  0  0  0  0  0
   -5.2026   -0.7516    0.4449 C   0  0  0  0  0  0  0  0  0  0  0  0
   -6.3282   -1.1153    1.3145 C   0  0  0  0  0  0  0  0  0  0  0  0
    2.4698    2.1810   -1.2256 H   0  0  0  0  0  0  0  0  0  0  0  0
   -0.0174    1.4042   -1.6217 H   0  0  0  0  0  0  0  0  0  0  0  0
    0.7010   -0.0131   -0.8958 H   0  0  0  0  0  0  0  0  0  0  0  0
    2.9573    2.6758    1.7602 H   0  0  0  0  0  0  0  0  0  0  0  0
    2.9001    3.8864    0.4548 H   0  0  0  0  0  0  0  0  0  0  0  0
    4.2223    2.7416    0.5385 H   0  0  0  0  0  0  0  0  0  0  0  0
    0.6219    3.6790   -0.8598 H   0  0  0  0  0  0  0  0  0  0  0  0
   -0.6726    3.1941    0.2400 H   0  0  0  0  0  0  0  0  0  0  0  0
    0.7864    3.8461    0.9105 H   0  0  0  0  0  0  0  0  0  0  0  0
    4.3406    0.7589   -1.7447 H   0  0  0  0  0  0  0  0  0  0  0  0
    1.7606   -0.1657    1.5987 H   0  0  0  0  0  0  0  0  0  0  0  0
    5.3032   -1.5107   -1.6037 H   0  0  0  0  0  0  0  0  0  0  0  0
    2.7155   -2.4177    1.7039 H   0  0  0  0  0  0  0  0  0  0  0  0
   -1.8552    0.3172   -1.8647 H   0  0  0  0  0  0  0  0  0  0  0  0
   -3.4552   -0.2426    1.6508 H   0  0  0  0  0  0  0  0  0  0  0  0
   -7.1758   -0.4435    1.1480 H   0  0  0  0  0  0  0  0  0  0  0  0
   -6.6558   -2.1396    1.1119 H   0  0  0  0  0  0  0  0  0  0  0  0
   -6.0482   -1.0519    2.3707 H   0  0  0  0  0  0  0  0  0  0  0  0
  1 17  1  0  0  0  0
  2 14  2  0  0  0  0
  3  6  1  0  0  0  0
  3 20  1  0  0  0  0
  4  7  1  0  0  0  0
  4  9  1  0  0  0  0
  4 11  1  0  0  0  0
  5 14  1  0  0  0  0
  5 18  1  0  0  0  0
  5 35  1  0  0  0  0
  6 18  2  0  0  0  0
  7  8  1  0  0  0  0
  7 10  1  0  0  0  0
  7 22  1  0  0  0  0
  8 12  2  0  0  0  0
  8 13  1  0  0  0  0
  9 14  1  0  0  0  0
  9 23  1  0  0  0  0
  9 24  1  0  0  0  0
 10 25  1  0  0  0  0
 10 26  1  0  0  0  0
 10 27  1  0  0  0  0
 11 28  1  0  0  0  0
 11 29  1  0  0  0  0
 11 30  1  0  0  0  0
 12 15  1  0  0  0  0
 12 31  1  0  0  0  0
 13 16  2  0  0  0  0
 13 32  1  0  0  0  0
 15 17  2  0  0  0  0
 15 33  1  0  0  0  0
 16 17  1  0  0  0  0
 16 34  1  0  0  0  0
 18 19  1  0  0  0  0
 19 20  2  0  0  0  0
 19 36  1  0  0  0  0
 20 21  1  0  0  0  0
 21 37  1  0  0  0  0
 21 38  1  0  0  0  0
 21 39  1  0  0  0  0
M  END
> <PUBCHEM_COMPOUND_CID>
17395587

> <PUBCHEM_CONFORMER_RMSD>
0.8

> <PUBCHEM_CONFORMER_DIVERSEORDER>
7
34
33
18
37
58
73
70
81
23
71
29
77
11
44
65
72
69
68
41
13
51
43
39
16
79
40
66
74
78
38
62
55
49
14
20
52
53
28
6
32
2
35
61
8
4
59
67
5
47
25
48
27
46
10
15
9
75
54
45
26
80
3
30
21
50
12
42
57
1
56
31
76
60
24
63
17
64
22
36
19

> <PUBCHEM_MMFF94_PARTIAL_CHARGES>
26
1 -0.19
11 0.27
12 -0.15
13 -0.15
14 0.57
15 -0.15
16 -0.15
17 0.19
18 0.35
19 -0.15
2 -0.57
20 -0.04
21 0.18
3 -0.02
31 0.15
32 0.15
33 0.15
34 0.15
35 0.37
36 0.15
4 -0.81
5 -0.49
6 -0.41
7 0.41
8 -0.14
9 0.33

> <PUBCHEM_EFFECTIVE_ROTOR_COUNT>
6

> <PUBCHEM_PHARMACOPHORE_FEATURES>
5
1 2 acceptor
1 4 cation
1 5 donor
5 3 6 18 19 20 rings
6 8 12 13 15 16 17 rings

> <PUBCHEM_HEAVY_ATOM_COUNT>
21

> <PUBCHEM_ATOM_DEF_STEREO_COUNT>
0

> <PUBCHEM_ATOM_UDEF_STEREO_COUNT>
1

> <PUBCHEM_BOND_DEF_STEREO_COUNT>
0

> <PUBCHEM_BOND_UDEF_STEREO_COUNT>
0

> <PUBCHEM_ISOTOPIC_ATOM_COUNT>
0

> <PUBCHEM_COMPONENT_COUNT>
1

> <PUBCHEM_CACTVS_TAUTO_COUNT>
3

> <PUBCHEM_CONFORMER_ID>
01096F8300000007

> <PUBCHEM_MMFF94_ENERGY>
49.4099

> <PUBCHEM_FEATURE_SELFOVERLAP>
25.371

> <PUBCHEM_SHAPE_FINGERPRINT>
10554248 39 13109594228532792987
10912923 1 17531246094237239549
11128504 68 14045741517421261079
12107183 9 18117549842068082817
12236239 1 17676481709978175513
12403259 327 14851614279928002174
12553582 1 18335148617553215630
12616971 3 17894347766132314295
12730499 353 18199180703265088096
13073987 5 18335415739013155537
13167823 11 18260266305186862231
13464513 79 18187363251348286846
13533116 47 18336542729661933969
13911852 28 18337111296942624031
13914758 101 18187650237300671221
13955234 65 18263084318997849456
14251732 14 15554153806122338379
14252887 29 18409738330940605480
14341114 176 18339635647566081513
14528608 73 10519987054402299763
14576447 43 18340200899669413774
14767858 380 18269818905739006476
14863182 85 18411140200192725100
14866123 147 17906736160847205705
15110567 62 18273212014816443523
15142526 21 16884718816882454792
15188451 53 16371306454155101727
15537594 2 18408882910540807174
17349148 13 17749103379488144951
17818456 19 17822280349330789665
17844677 252 18411134723909293853
1813 80 18187358856889796348
18222031 100 18186526522266092446
18681886 176 15358813380162340376
193927 3 18337388339438907206
20369508 70 18411422804344907828
20388580 30 18342172284972952980
20645477 70 18342176635368498760
20775530 9 17389095952231163278
20832881 197 18341050817224303513
21033650 10 15912769521519881701
212916 134 15213294227849127727
21521721 280 18263923238402458352
22033318 11 17973124510494178513
221357 26 18273217508479872221
2215653 11 18130796655217274287
22224240 67 18043825195456173568
22950370 63 18412256272549671609
2303208 19 17846775179590935347
235170 7 16415483778401485719
23559900 14 17988923323330405157
239999 70 17846501379188110440
268830 7 17386008304668631337
270888 7 9294701196467384038
3004659 81 17917430977570528890
312423 11 18336817654397403657
314173 41 18411696556690800150
314194 84 18409729560327301519
3323516 105 18060423499591089643
33824 294 18339084787750503968
3411729 13 15286499612814977896
3421961 26 18409451379906758208
345986 75 18040434433768992136
34797466 226 16558458700321183599
351380 3 18187362142487199167
46194498 28 17203039678069228661
465052 167 18335695048603746886
4990 188 17346606252982536965
5104073 3 18260545641196526825
5281201 14 17989491805507724205
573450 72 16950281772386949989
6034566 193 8357382947834691098
7970288 3 18337392767835812126
8863177 126 18129371623449237515
88748 71 18268992153650179142
94968 8 18342176683093069926
960060 61 18131911559327123390

> <PUBCHEM_SHAPE_MULTIPOLES>
398.21
13.07
2.9
1.18
17.59
0.77
0.06
-8.99
-0.19
-4.99
-0.57
0.74
-0.17
0.41

> <PUBCHEM_SHAPE_SELFOVERLAP>
834.864

> <PUBCHEM_SHAPE_VOLUME>
227.3

> <PUBCHEM_COORDINATE_TYPE>
2
5
10

$$$$

