12950
  -OEChem-06261207352D

 57 58  0     1  0  0  0  0  0999 V2000
    2.9748    6.5936    0.0000 S   0  0  3  0  0  0  0  0  0  0  0  0
    2.5409    7.4946    0.0000 O   0  0  0  0  0  0  0  0  0  0  0  0
    1.5782   11.0214    0.0000 O   0  0  0  0  0  0  0  0  0  0  0  0
    2.4442    9.5214    0.0000 O   0  0  0  0  0  0  0  0  0  0  0  0
    5.9083   10.5214    0.0000 O   0  5  0  0  0  0  0  0  0  0  0  0
    5.0423   12.0214    0.0000 O   0  0  0  0  0  0  0  0  0  0  0  0
    5.2068    1.4030    0.0000 N   0  3  0  0  0  0  0  0  0  0  0  0
    4.3407    1.9030    0.0000 C   0  0  0  0  0  0  0  0  0  0  0  0
    4.3408    2.9030    0.0000 C   0  0  0  0  0  0  0  0  0  0  0  0
    3.4747    4.4030    0.0000 C   0  0  0  0  0  0  0  0  0  0  0  0
    4.3757    4.8368    0.0000 C   0  0  0  0  0  0  0  0  0  0  0  0
    3.4747    3.4030    0.0000 C   0  0  0  0  0  0  0  0  0  0  0  0
    2.5738    4.8369    0.0000 C   0  0  0  0  0  0  0  0  0  0  0  0
    4.5982    5.8118    0.0000 C   0  0  0  0  0  0  0  0  0  0  0  0
    3.9748    6.5936    0.0000 C   0  0  0  0  0  0  0  0  0  0  0  0
    2.3513    5.8118    0.0000 C   0  0  0  0  0  0  0  0  0  0  0  0
    6.0728    0.9029    0.0000 C   0  0  0  0  0  0  0  0  0  0  0  0
    4.7068    0.5369    0.0000 C   0  0  0  0  0  0  0  0  0  0  0  0
    5.1283    4.1167    0.0000 C   0  0  0  0  0  0  0  0  0  0  0  0
    1.8212    4.1167    0.0000 C   0  0  0  0  0  0  0  0  0  0  0  0
    5.5887    6.1341    0.0000 C   0  0  0  0  0  0  0  0  0  0  0  0
    1.3608    6.1341    0.0000 C   0  0  0  0  0  0  0  0  0  0  0  0
    6.1260    4.4160    0.0000 C   0  0  0  0  0  0  0  0  0  0  0  0
    6.3577    5.4315    0.0000 C   0  0  0  0  0  0  0  0  0  0  0  0
    0.8235    4.4160    0.0000 C   0  0  0  0  0  0  0  0  0  0  0  0
    0.5917    5.4316    0.0000 C   0  0  0  0  0  0  0  0  0  0  0  0
    3.3102   11.0214    0.0000 C   0  0  0  0  0  0  0  0  0  0  0  0
    4.1762   10.5214    0.0000 C   0  0  0  0  0  0  0  0  0  0  0  0
    2.4442   10.5214    0.0000 C   0  0  0  0  0  0  0  0  0  0  0  0
    5.0423   11.0214    0.0000 C   0  0  0  0  0  0  0  0  0  0  0  0
    4.1287    1.3204    0.0000 H   0  0  0  0  0  0  0  0  0  0  0  0
    3.7302    2.0106    0.0000 H   0  0  0  0  0  0  0  0  0  0  0  0
    5.5168    1.9399    0.0000 H   0  0  0  0  0  0  0  0  0  0  0  0
    4.5528    3.4856    0.0000 H   0  0  0  0  0  0  0  0  0  0  0  0
    4.9513    2.7953    0.0000 H   0  0  0  0  0  0  0  0  0  0  0  0
    2.9378    3.0930    0.0000 H   0  0  0  0  0  0  0  0  0  0  0  0
    4.5334    6.8626    0.0000 H   0  0  0  0  0  0  0  0  0  0  0  0
    3.8368    7.1981    0.0000 H   0  0  0  0  0  0  0  0  0  0  0  0
    5.7628    0.3660    0.0000 H   0  0  0  0  0  0  0  0  0  0  0  0
    6.3828    1.4399    0.0000 H   0  0  0  0  0  0  0  0  0  0  0  0
    6.6097    0.5929    0.0000 H   0  0  0  0  0  0  0  0  0  0  0  0
    5.2437    0.2269    0.0000 H   0  0  0  0  0  0  0  0  0  0  0  0
    4.3968    0.0000    0.0000 H   0  0  0  0  0  0  0  0  0  0  0  0
    4.1698    0.8469    0.0000 H   0  0  0  0  0  0  0  0  0  0  0  0
    4.9833    3.5138    0.0000 H   0  0  0  0  0  0  0  0  0  0  0  0
    1.9661    3.5139    0.0000 H   0  0  0  0  0  0  0  0  0  0  0  0
    5.7197    6.7401    0.0000 H   0  0  0  0  0  0  0  0  0  0  0  0
    1.2298    6.7401    0.0000 H   0  0  0  0  0  0  0  0  0  0  0  0
    6.5788    3.9925    0.0000 H   0  0  0  0  0  0  0  0  0  0  0  0
    6.9495    5.6165    0.0000 H   0  0  0  0  0  0  0  0  0  0  0  0
    0.3707    3.9926    0.0000 H   0  0  0  0  0  0  0  0  0  0  0  0
    0.0000    5.6166    0.0000 H   0  0  0  0  0  0  0  0  0  0  0  0
    2.9117   11.4964    0.0000 H   0  0  0  0  0  0  0  0  0  0  0  0
    3.7087   11.4964    0.0000 H   0  0  0  0  0  0  0  0  0  0  0  0
    4.5748   10.0465    0.0000 H   0  0  0  0  0  0  0  0  0  0  0  0
    3.7777   10.0465    0.0000 H   0  0  0  0  0  0  0  0  0  0  0  0
    1.0412   10.7114    0.0000 H   0  0  0  0  0  0  0  0  0  0  0  0
  1  2  2  0  0  0  0
  1 15  1  0  0  0  0
  1 16  1  0  0  0  0
  3 29  1  0  0  0  0
  3 57  1  0  0  0  0
  4 29  2  0  0  0  0
  5 30  1  0  0  0  0
  6 30  2  0  0  0  0
  7  8  1  0  0  0  0
  7 17  1  0  0  0  0
  7 18  1  0  0  0  0
  7 33  1  0  0  0  0
  8  9  1  0  0  0  0
  8 31  1  0  0  0  0
  8 32  1  0  0  0  0
  9 12  1  0  0  0  0
  9 34  1  0  0  0  0
  9 35  1  0  0  0  0
 10 11  1  0  0  0  0
 10 12  2  3  0  0  0
 10 13  1  0  0  0  0
 11 14  1  0  0  0  0
 11 19  2  0  0  0  0
 12 36  1  0  0  0  0
 13 16  1  0  0  0  0
 13 20  2  0  0  0  0
 14 15  1  0  0  0  0
 14 21  2  0  0  0  0
 15 37  1  0  0  0  0
 15 38  1  0  0  0  0
 16 22  2  0  0  0  0
 17 39  1  0  0  0  0
 17 40  1  0  0  0  0
 17 41  1  0  0  0  0
 18 42  1  0  0  0  0
 18 43  1  0  0  0  0
 18 44  1  0  0  0  0
 19 23  1  0  0  0  0
 19 45  1  0  0  0  0
 20 25  1  0  0  0  0
 20 46  1  0  0  0  0
 21 24  1  0  0  0  0
 21 47  1  0  0  0  0
 22 26  1  0  0  0  0
 22 48  1  0  0  0  0
 23 24  2  0  0  0  0
 23 49  1  0  0  0  0
 24 50  1  0  0  0  0
 25 26  2  0  0  0  0
 25 51  1  0  0  0  0
 26 52  1  0  0  0  0
 27 28  1  0  0  0  0
 27 29  1  0  0  0  0
 27 53  1  0  0  0  0
 27 54  1  0  0  0  0
 28 30  1  0  0  0  0
 28 55  1  0  0  0  0
 28 56  1  0  0  0  0
M  CHG  2   5  -1   7   1
M  END
> <PUBCHEM_COMPOUND_CID>
12950

> <PUBCHEM_COMPOUND_CANONICALIZED>
1

> <PUBCHEM_CACTVS_COMPLEXITY>
532

> <PUBCHEM_CACTVS_HBOND_ACCEPTOR>
6

> <PUBCHEM_CACTVS_HBOND_DONOR>
2

> <PUBCHEM_CACTVS_ROTATABLE_BOND>
5

> <PUBCHEM_CACTVS_SUBSKEYS>
AAADceB6OABAAAAAAAAAAAAAAAAAAAAAAAAwYAAABIAAAAABQAAAHgQQCAAADADF2ASyCYPAAgqIAiDSCEBCAAAgCBAIiJkIAIgIIDKgERCEYAAkkAAoiAdDgMAOgAAAAAAUAAAAAAAAACgAAAAAAAAAAA==

> <PUBCHEM_IUPAC_OPENEYE_NAME>
dimethyl-[3-(5-oxo-6H-benzo[c][1]benzothiepin-11-ylidene)propyl]ammonium; 4-hydroxy-4-oxo-butanoate

> <PUBCHEM_IUPAC_CAS_NAME>
dimethyl-[3-(5-oxo-6H-benzo[c][1]benzothiepin-11-ylidene)propyl]ammonium; 4-hydroxy-4-oxobutanoate

> <PUBCHEM_IUPAC_NAME>
dimethyl-[3-(5-oxo-6H-benzo[c][1]benzothiepin-11-ylidene)propyl]azanium; 4-hydroxy-4-oxobutanoate

> <PUBCHEM_IUPAC_SYSTEMATIC_NAME>
dimethyl-[3-(5-oxidanylidene-6H-benzo[c][1]benzothiepin-11-ylidene)propyl]azanium; 4-oxidanyl-4-oxidanylidene-butanoate

> <PUBCHEM_IUPAC_TRADITIONAL_NAME>
4-hydroxy-4-keto-butyrate; 3-(5-keto-6H-benzo[c][1]benzothiepin-11-ylidene)propyl-dimethyl-ammonium

> <PUBCHEM_IUPAC_INCHI>
InChI=1S/C19H21NOS.C4H6O4/c1-20(2)13-7-11-17-16-9-4-3-8-15(16)14-22(21)19-12-6-5-10-18(17)19;5-3(6)1-2-4(7)8/h3-6,8-12H,7,13-14H2,1-2H3;1-2H2,(H,5,6)(H,7,8)

> <PUBCHEM_IUPAC_INCHIKEY>
IQVCARQEMAPBMD-UHFFFAOYSA-N

> <PUBCHEM_EXACT_MASS>
429.160994

> <PUBCHEM_MOLECULAR_FORMULA>
C23H27NO5S

> <PUBCHEM_MOLECULAR_WEIGHT>
429.52918

> <PUBCHEM_OPENEYE_CAN_SMILES>
C[NH+](C)CCC=C1C2=CC=CC=C2CS(=O)C3=CC=CC=C31.C(CC(=O)[O-])C(=O)O

> <PUBCHEM_OPENEYE_ISO_SMILES>
C[NH+](C)CCC=C1C2=CC=CC=C2CS(=O)C3=CC=CC=C31.C(CC(=O)[O-])C(=O)O

> <PUBCHEM_CACTVS_TPSA>
118

> <PUBCHEM_MONOISOTOPIC_WEIGHT>
429.160994

> <PUBCHEM_TOTAL_CHARGE>
0

> <PUBCHEM_HEAVY_ATOM_COUNT>
30

> <PUBCHEM_ATOM_DEF_STEREO_COUNT>
0

> <PUBCHEM_ATOM_UDEF_STEREO_COUNT>
0

> <PUBCHEM_BOND_DEF_STEREO_COUNT>
0

> <PUBCHEM_BOND_UDEF_STEREO_COUNT>
1

> <PUBCHEM_ISOTOPIC_ATOM_COUNT>
0

> <PUBCHEM_COMPONENT_COUNT>
2

> <PUBCHEM_CACTVS_TAUTO_COUNT>
1

> <PUBCHEM_COORDINATE_TYPE>
1
5
255

> <PUBCHEM_BONDANNOTATIONS>
10  12  1
11  14  8
11  19  8
13  16  8
13  20  8
14  21  8
16  22  8
19  23  8
20  25  8
21  24  8
22  26  8
23  24  8
25  26  8

$$$$

