17396307
  -OEChem-06241222553D

 38 39  0     0  0  0  0  0  0999 V2000
    6.3637   -3.3419    0.0660 Cl  0  0  0  0  0  0  0  0  0  0  0  0
   -2.7793    1.8073    0.7721 O   0  0  0  0  0  0  0  0  0  0  0  0
    2.9714    2.3294    1.0579 O   0  0  0  0  0  0  0  0  0  0  0  0
    1.9205    1.6165   -0.8834 N   0  0  0  0  0  0  0  0  0  0  0  0
   -3.0193   -0.0722   -0.6159 N   0  0  0  0  0  0  0  0  0  0  0  0
   -4.7242   -1.7147   -0.8425 N   0  0  0  0  0  0  0  0  0  0  0  0
   -0.3020    2.5037   -0.2945 C   0  0  0  0  0  0  0  0  0  0  0  0
    1.0238    2.7321   -1.0126 C   0  0  0  0  0  0  0  0  0  0  0  0
   -1.0463    1.2737   -0.8151 C   0  0  0  0  0  0  0  0  0  0  0  0
   -2.3787    1.0557   -0.1106 C   0  0  0  0  0  0  0  0  0  0  0  0
    2.8351    1.5050    0.1576 C   0  0  0  0  0  0  0  0  0  0  0  0
    3.7094    0.3041    0.1345 C   0  0  0  0  0  0  0  0  0  0  0  0
   -4.2723   -0.6008   -0.2241 C   0  0  0  0  0  0  0  0  0  0  0  0
    4.9681    0.3464    0.7342 C   0  0  0  0  0  0  0  0  0  0  0  0
    3.2716   -0.8657   -0.4863 C   0  0  0  0  0  0  0  0  0  0  0  0
    5.7890   -0.7810    0.7129 C   0  0  0  0  0  0  0  0  0  0  0  0
    4.0924   -1.9932   -0.5076 C   0  0  0  0  0  0  0  0  0  0  0  0
   -4.9616    0.0648    0.7767 C   0  0  0  0  0  0  0  0  0  0  0  0
    5.3512   -1.9509    0.0920 C   0  0  0  0  0  0  0  0  0  0  0  0
   -6.1941   -0.4461    1.1684 C   0  0  0  0  0  0  0  0  0  0  0  0
   -5.9258   -2.1819   -0.4354 C   0  0  0  0  0  0  0  0  0  0  0  0
   -6.6924   -1.5905    0.5557 C   0  0  0  0  0  0  0  0  0  0  0  0
   -0.9303    3.3946   -0.4154 H   0  0  0  0  0  0  0  0  0  0  0  0
   -0.1217    2.3897    0.7821 H   0  0  0  0  0  0  0  0  0  0  0  0
    0.8531    2.8902   -2.0829 H   0  0  0  0  0  0  0  0  0  0  0  0
    1.5073    3.6315   -0.6157 H   0  0  0  0  0  0  0  0  0  0  0  0
   -1.2396    1.3829   -1.8891 H   0  0  0  0  0  0  0  0  0  0  0  0
   -0.4419    0.3705   -0.6696 H   0  0  0  0  0  0  0  0  0  0  0  0
    1.9003    0.9287   -1.6285 H   0  0  0  0  0  0  0  0  0  0  0  0
   -2.5569   -0.5980   -1.3537 H   0  0  0  0  0  0  0  0  0  0  0  0
    5.3290    1.2497    1.2190 H   0  0  0  0  0  0  0  0  0  0  0  0
    2.2872   -0.9513   -0.9367 H   0  0  0  0  0  0  0  0  0  0  0  0
    6.7678   -0.7335    1.1833 H   0  0  0  0  0  0  0  0  0  0  0  0
    3.7358   -2.9004   -0.9888 H   0  0  0  0  0  0  0  0  0  0  0  0
   -4.6421    0.9530    1.2962 H   0  0  0  0  0  0  0  0  0  0  0  0
   -6.7666    0.0455    1.9494 H   0  0  0  0  0  0  0  0  0  0  0  0
   -6.2698   -3.0763   -0.9442 H   0  0  0  0  0  0  0  0  0  0  0  0
   -7.6508   -2.0064    0.8449 H   0  0  0  0  0  0  0  0  0  0  0  0
  1 19  1  0  0  0  0
  2 10  2  0  0  0  0
  3 11  2  0  0  0  0
  4  8  1  0  0  0  0
  4 11  1  0  0  0  0
  4 29  1  0  0  0  0
  5 10  1  0  0  0  0
  5 13  1  0  0  0  0
  5 30  1  0  0  0  0
  6 13  1  0  0  0  0
  6 21  2  0  0  0  0
  7  8  1  0  0  0  0
  7  9  1  0  0  0  0
  7 23  1  0  0  0  0
  7 24  1  0  0  0  0
  8 25  1  0  0  0  0
  8 26  1  0  0  0  0
  9 10  1  0  0  0  0
  9 27  1  0  0  0  0
  9 28  1  0  0  0  0
 11 12  1  0  0  0  0
 12 14  2  0  0  0  0
 12 15  1  0  0  0  0
 13 18  2  0  0  0  0
 14 16  1  0  0  0  0
 14 31  1  0  0  0  0
 15 17  2  0  0  0  0
 15 32  1  0  0  0  0
 16 19  2  0  0  0  0
 16 33  1  0  0  0  0
 17 19  1  0  0  0  0
 17 34  1  0  0  0  0
 18 20  1  0  0  0  0
 18 35  1  0  0  0  0
 20 22  2  0  0  0  0
 20 36  1  0  0  0  0
 21 22  1  0  0  0  0
 21 37  1  0  0  0  0
 22 38  1  0  0  0  0
M  END
> <PUBCHEM_COMPOUND_CID>
17396307

> <PUBCHEM_CONFORMER_RMSD>
0.8

> <PUBCHEM_CONFORMER_DIVERSEORDER>
1
7
2
17
43
9
74
59
77
64
68
14
76
23
4
24
70
56
13
27
31
57
53
75
12
3
15
18
40
19
48
71
60
62
8
45
67
25
36
72
55
28
52
49
78
38
26
69
65
61
79
22
21
37
29
11
32
51
33
20
34
50
73
30
39
54
6
63
44
66
46
47
42
16
58
10
5
35
41

> <PUBCHEM_MMFF94_PARTIAL_CHARGES>
31
1 -0.18
10 0.57
11 0.54
12 0.09
13 0.43
14 -0.15
15 -0.15
16 -0.15
17 -0.15
18 -0.15
19 0.18
2 -0.57
20 -0.15
21 0.16
22 -0.15
29 0.37
3 -0.57
30 0.37
31 0.15
32 0.15
33 0.15
34 0.15
35 0.15
36 0.15
37 0.15
38 0.15
4 -0.73
5 -0.55
6 -0.62
8 0.3
9 0.06

> <PUBCHEM_EFFECTIVE_ROTOR_COUNT>
8

> <PUBCHEM_PHARMACOPHORE_FEATURES>
7
1 2 acceptor
1 3 acceptor
1 4 donor
1 5 donor
1 6 acceptor
6 12 14 15 16 17 19 rings
6 6 13 18 20 21 22 rings

> <PUBCHEM_HEAVY_ATOM_COUNT>
22

> <PUBCHEM_ATOM_DEF_STEREO_COUNT>
0

> <PUBCHEM_ATOM_UDEF_STEREO_COUNT>
0

> <PUBCHEM_BOND_DEF_STEREO_COUNT>
0

> <PUBCHEM_BOND_UDEF_STEREO_COUNT>
0

> <PUBCHEM_ISOTOPIC_ATOM_COUNT>
0

> <PUBCHEM_COMPONENT_COUNT>
1

> <PUBCHEM_CACTVS_TAUTO_COUNT>
6

> <PUBCHEM_CONFORMER_ID>
0109725300000001

> <PUBCHEM_MMFF94_ENERGY>
52.4836

> <PUBCHEM_FEATURE_SELFOVERLAP>
35.52

> <PUBCHEM_SHAPE_FINGERPRINT>
10319926 262 17241029016132500301
10571361 74 17970922050811452911
11059845 2 17753595034632942961
11211813 128 18410295840130623514
12107183 9 18264196067409646329
12166972 35 17632853140117173462
12422481 6 17821442478446378815
12596602 18 17095240276626854410
12623949 98 18261105314469371566
12633257 1 15936700280445100333
13533116 47 18337670815243400193
13551218 46 18409446956333036487
13911852 28 18410858763248344853
13955234 65 18191872232396301048
14123256 34 18271802449567692334
1420 369 18411980252102513589
14211702 104 18197772203443430115
14216079 64 18413671305871727003
14251740 57 18411140216728983536
14251751 18 18334295383281058537
14251764 30 18338237175828018418
14528608 73 9727363411469049657
15352361 1 18412827997142371308
16120349 21 18337382864020301537
17492 89 18411139129902356237
1768 124 18261111833581373751
17857418 61 18408884019011244381
193927 3 17988918964223572641
1979834 28 17530952596982657207
20028762 73 18408323289329919414
20165401 70 18337108939776140511
20398071 356 18412542132598697555
21095086 4 18264481961828758502
21585482 310 18059846238986492915
21682296 61 18342173367505190907
229767 44 18113902641439381535
229767 8 18047747397992995814
23424784 1240 18188487020888463094
23522609 53 18123152858243806116
25122255 55 17917140607784951619
270888 7 8502364529935760630
2748736 6 8502365612146576690
3014063 24 18408609132604225239
312425 54 18113897156770529185
3421961 26 18410295766056064572
34797466 226 15697433305163074741
3680242 22 18336817603348081799
3886686 26 17393303825979120377
46194498 28 17203049578074659556
465052 167 18335419080375970286
5104073 3 18041283265815806064
543368 44 9295290530694295067
559249 180 18411982473470926577
56633871 153 18334017194028721919
5718773 13 18271530913678451242
6327066 14 9006759991878493618
636775 8 18046057427831862238
6712543 237 16370727049728698247
7970288 3 18413392024937911635
8863177 126 18336829783890910550

> <PUBCHEM_SHAPE_MULTIPOLES>
427.94
19.24
3.41
1.01
10.18
0.1
0.06
18.85
4.01
-2.98
-0.47
0.36
-0.17
0.02

> <PUBCHEM_SHAPE_SELFOVERLAP>
888.673

> <PUBCHEM_SHAPE_VOLUME>
242.4

> <PUBCHEM_COORDINATE_TYPE>
2
5
10

$$$$

