17395604
  -OEChem-06241222513D

 47 48  0     1  0  0  0  0  0999 V2000
   -2.9490   -1.0585   -1.7496 F   0  0  0  0  0  0  0  0  0  0  0  0
   -4.5872    1.6400    1.7995 F   0  0  0  0  0  0  0  0  0  0  0  0
    0.2746    0.5446   -1.3573 O   0  0  0  0  0  0  0  0  0  0  0  0
   -2.0560    1.4890    1.1600 O   0  0  0  0  0  0  0  0  0  0  0  0
   -1.4767   -0.5871    0.3040 N   0  0  0  0  0  0  0  0  0  0  0  0
    2.0332    0.3668    0.1469 N   0  0  0  0  0  0  0  0  0  0  0  0
    6.9978   -0.3573    0.1718 N   0  0  0  0  0  0  0  0  0  0  0  0
   -0.1087   -0.5817    0.7567 C   0  0  1  0  0  0  0  0  0  0  0  0
    0.4375   -1.9951    1.0503 C   0  0  0  0  0  0  0  0  0  0  0  0
    0.7307    0.1575   -0.2834 C   0  0  0  0  0  0  0  0  0  0  0  0
   -0.3704   -2.7428    2.1163 C   0  0  0  0  0  0  0  0  0  0  0  0
    0.5105   -2.8336   -0.2296 C   0  0  0  0  0  0  0  0  0  0  0  0
    3.0164    1.0778   -0.6374 C   0  0  2  0  0  0  0  0  0  0  0  0
    4.4148    0.5736   -0.3532 C   0  0  0  0  0  0  0  0  0  0  0  0
    2.8845    2.5848   -0.4268 C   0  0  0  0  0  0  0  0  0  0  0  0
   -2.3483    0.4653    0.5477 C   0  0  0  0  0  0  0  0  0  0  0  0
   -3.7333    0.2951    0.0377 C   0  0  0  0  0  0  0  0  0  0  0  0
    5.1511   -0.0459   -1.3570 C   0  0  0  0  0  0  0  0  0  0  0  0
    4.9687    0.7282    0.9129 C   0  0  0  0  0  0  0  0  0  0  0  0
   -3.9669   -0.4708   -1.1044 C   0  0  0  0  0  0  0  0  0  0  0  0
   -4.8001    0.9017    0.7007 C   0  0  0  0  0  0  0  0  0  0  0  0
    6.4263   -0.4895   -1.0462 C   0  0  0  0  0  0  0  0  0  0  0  0
    6.2521    0.2499    1.1221 C   0  0  0  0  0  0  0  0  0  0  0  0
   -5.2672   -0.6302   -1.5833 C   0  0  0  0  0  0  0  0  0  0  0  0
   -6.1004    0.7421    0.2218 C   0  0  0  0  0  0  0  0  0  0  0  0
   -6.3341   -0.0238   -0.9203 C   0  0  0  0  0  0  0  0  0  0  0  0
   -0.0637    0.0084    1.6818 H   0  0  0  0  0  0  0  0  0  0  0  0
    1.4613   -1.9062    1.4350 H   0  0  0  0  0  0  0  0  0  0  0  0
   -0.4218   -2.1579    3.0406 H   0  0  0  0  0  0  0  0  0  0  0  0
    0.0982   -3.7038    2.3537 H   0  0  0  0  0  0  0  0  0  0  0  0
   -1.3938   -2.9426    1.7821 H   0  0  0  0  0  0  0  0  0  0  0  0
    0.9529   -3.8129   -0.0137 H   0  0  0  0  0  0  0  0  0  0  0  0
    1.1390   -2.3624   -0.9916 H   0  0  0  0  0  0  0  0  0  0  0  0
   -0.4776   -3.0147   -0.6640 H   0  0  0  0  0  0  0  0  0  0  0  0
    2.7844    0.8849   -1.6932 H   0  0  0  0  0  0  0  0  0  0  0  0
   -1.7998   -1.3885   -0.2277 H   0  0  0  0  0  0  0  0  0  0  0  0
    2.2899    0.0771    1.0860 H   0  0  0  0  0  0  0  0  0  0  0  0
    1.8921    2.9353   -0.7318 H   0  0  0  0  0  0  0  0  0  0  0  0
    3.6298    3.1316   -1.0149 H   0  0  0  0  0  0  0  0  0  0  0  0
    3.0138    2.8645    0.6248 H   0  0  0  0  0  0  0  0  0  0  0  0
    4.7529   -0.1848   -2.3562 H   0  0  0  0  0  0  0  0  0  0  0  0
    4.4273    1.2020    1.7244 H   0  0  0  0  0  0  0  0  0  0  0  0
    7.0415   -0.9793   -1.7938 H   0  0  0  0  0  0  0  0  0  0  0  0
    6.7288    0.3446    2.0922 H   0  0  0  0  0  0  0  0  0  0  0  0
   -5.4487   -1.2267   -2.4725 H   0  0  0  0  0  0  0  0  0  0  0  0
   -6.9308    1.2144    0.7383 H   0  0  0  0  0  0  0  0  0  0  0  0
   -7.3465   -0.1480   -1.2932 H   0  0  0  0  0  0  0  0  0  0  0  0
  1 20  1  0  0  0  0
  2 21  1  0  0  0  0
  3 10  2  0  0  0  0
  4 16  2  0  0  0  0
  5  8  1  0  0  0  0
  5 16  1  0  0  0  0
  5 36  1  0  0  0  0
  6 10  1  0  0  0  0
  6 13  1  0  0  0  0
  6 37  1  0  0  0  0
  7 22  2  0  0  0  0
  7 23  1  0  0  0  0
  8  9  1  0  0  0  0
  8 10  1  0  0  0  0
  8 27  1  0  0  0  0
  9 11  1  0  0  0  0
  9 12  1  0  0  0  0
  9 28  1  0  0  0  0
 11 29  1  0  0  0  0
 11 30  1  0  0  0  0
 11 31  1  0  0  0  0
 12 32  1  0  0  0  0
 12 33  1  0  0  0  0
 12 34  1  0  0  0  0
 13 14  1  0  0  0  0
 13 15  1  0  0  0  0
 13 35  1  0  0  0  0
 14 18  2  0  0  0  0
 14 19  1  0  0  0  0
 15 38  1  0  0  0  0
 15 39  1  0  0  0  0
 15 40  1  0  0  0  0
 16 17  1  0  0  0  0
 17 20  2  0  0  0  0
 17 21  1  0  0  0  0
 18 22  1  0  0  0  0
 18 41  1  0  0  0  0
 19 23  2  0  0  0  0
 19 42  1  0  0  0  0
 20 24  1  0  0  0  0
 21 25  2  0  0  0  0
 22 43  1  0  0  0  0
 23 44  1  0  0  0  0
 24 26  2  0  0  0  0
 24 45  1  0  0  0  0
 25 26  1  0  0  0  0
 25 46  1  0  0  0  0
 26 47  1  0  0  0  0
M  END
> <PUBCHEM_COMPOUND_CID>
17395604

> <PUBCHEM_CONFORMER_RMSD>
0.8

> <PUBCHEM_CONFORMER_DIVERSEORDER>
1
103
157
242
219
226
243
176
239
189
214
155
138
60
186
160
249
71
257
168
169
52
212
9
3
232
68
66
2
158
211
221
223
55
120
262
204
179
260
202
18
83
195
233
248
101
35
127
256
235
30
216
190
59
132
23
264
255
107
106
78
200
258
241
102
47
183
213
217
147
33
215
234
172
31
11
163
165
171
164
112
208
34
116
108
126
162
15
149
113
16
227
225
236
51
97
56
263
131
61
41
250
76
96
17
246
159
196
173
174
13
8
49
123
62
254
25
238
10
134
161
142
105
148
209
150
100
185
177
245
85
265
14
259
92
22
166
110
7
237
188
152
53
180
247
156
119
146
24
93
36
124
74
54
99
80
151
197
98
90
140
73
203
230
121
70
122
154
228
75
115
12
4
45
244
137
181
198
82
206
130
207
153
95
67
194
133
5
229
20
42
32
143
26
57
261
86
6
266
178
84
210
125
50
117
48
39
43
253
220
167
114
224
218
21
170
87
65
69
28
38
252
128
64
187
184
144
139
192
81
72
191
205
88
201
27
141
37
89
40
135
145
109
19
222
104
193
79
231
46
129
94
63
29
58
136
111
240
77
91
251
175
118
182
44
199

> <PUBCHEM_MMFF94_PARTIAL_CHARGES>
31
1 -0.19
10 0.57
13 0.44
14 -0.14
16 0.54
17 0.09
18 -0.15
19 -0.15
2 -0.19
20 0.19
21 0.19
22 0.16
23 0.16
24 -0.15
25 -0.15
26 -0.15
3 -0.57
36 0.37
37 0.37
4 -0.57
41 0.15
42 0.15
43 0.15
44 0.15
45 0.15
46 0.15
47 0.15
5 -0.73
6 -0.73
7 -0.62
8 0.36

> <PUBCHEM_EFFECTIVE_ROTOR_COUNT>
8

> <PUBCHEM_PHARMACOPHORE_FEATURES>
8
1 3 acceptor
1 4 acceptor
1 5 donor
1 6 donor
1 7 acceptor
3 9 11 12 hydrophobe
6 17 20 21 24 25 26 rings
6 7 14 18 19 22 23 rings

> <PUBCHEM_HEAVY_ATOM_COUNT>
26

> <PUBCHEM_ATOM_DEF_STEREO_COUNT>
1

> <PUBCHEM_ATOM_UDEF_STEREO_COUNT>
1

> <PUBCHEM_BOND_DEF_STEREO_COUNT>
0

> <PUBCHEM_BOND_UDEF_STEREO_COUNT>
0

> <PUBCHEM_ISOTOPIC_ATOM_COUNT>
0

> <PUBCHEM_COMPONENT_COUNT>
1

> <PUBCHEM_CACTVS_TAUTO_COUNT>
4

> <PUBCHEM_CONFORMER_ID>
01096F9400000001

> <PUBCHEM_MMFF94_ENERGY>
59.8267

> <PUBCHEM_FEATURE_SELFOVERLAP>
40.594

> <PUBCHEM_SHAPE_FINGERPRINT>
102385 1 17339859868567033540
10763959 59 16988846064119889796
11488393 25 17984715660061997310
11991303 11 17346310453974104827
12166972 35 17846493682633473413
12236239 1 18260269637823248541
12516196 113 8430316844076089735
13533116 47 18335139851952563514
1361 2 18188485891338710958
13631057 29 18268435642818449419
14251764 18 18333732412691765440
15183329 4 18342457041346667806
15849732 13 16272205284894643878
19489759 90 17822008709348560137
20567600 75 15338844191579912786
21033648 29 17131565950322985805
21403212 168 18131359626175910338
21521239 73 18114181955910132118
23402539 116 18186519895131814293
23536379 177 17385442133162118604
23559900 14 18338798888883742480
23569917 315 18342735204408975099
23569943 247 18046901852018279382
329604 57 13984659248298858274
335352 9 18273213089338352430
340366 18 17631443493496327956
38695281 34 18335421287594294559
404807 14 16305387660957960830
4073 2 18114465553175511350
474 4 18413385428078609001
5385378 56 18130504253094858522
77296 10 17023456551595202806

> <PUBCHEM_SHAPE_MULTIPOLES>
493.84
17.14
2.1
1.57
6.49
1.4
0.01
-4.32
2.4
0.48
-0.7
-0.88
0.23
-0.77

> <PUBCHEM_SHAPE_SELFOVERLAP>
1039.831

> <PUBCHEM_SHAPE_VOLUME>
277.2

> <PUBCHEM_COORDINATE_TYPE>
2
5
10

$$$$

