47205704
  -OEChem-06241222592D

 35 37  0     0  0  0  0  0  0999 V2000
    5.5443   -2.3203    0.0000 O   0  0  0  0  0  0  0  0  0  0  0  0
    7.5013   -0.2984    0.0000 O   0  0  0  0  0  0  0  0  0  0  0  0
    7.1441    1.3965    0.0000 N   0  0  0  0  0  0  0  0  0  0  0  0
    9.7315    1.4308    0.0000 N   0  0  0  0  0  0  0  0  0  0  0  0
    9.5253    2.4093    0.0000 N   0  0  0  0  0  0  0  0  0  0  0  0
    4.5981   -1.0155    0.0000 C   0  0  0  0  0  0  0  0  0  0  0  0
    5.5443   -0.7108    0.0000 C   0  0  0  0  0  0  0  0  0  0  0  0
    4.5981   -2.0155    0.0000 C   0  0  0  0  0  0  0  0  0  0  0  0
    2.8660   -1.0155    0.0000 C   0  0  0  0  0  0  0  0  0  0  0  0
    3.7320   -0.5155    0.0000 C   0  0  0  0  0  0  0  0  0  0  0  0
    5.8550    0.2397    0.0000 C   0  0  0  0  0  0  0  0  0  0  0  0
    2.8660   -2.0155    0.0000 C   0  0  0  0  0  0  0  0  0  0  0  0
    3.7320   -2.5155    0.0000 C   0  0  0  0  0  0  0  0  0  0  0  0
    6.1279   -1.5155    0.0000 C   0  0  0  0  0  0  0  0  0  0  0  0
    6.8335    0.4459    0.0000 C   0  0  0  0  0  0  0  0  0  0  0  0
    2.0000   -0.5155    0.0000 C   0  0  0  0  0  0  0  0  0  0  0  0
    2.0000   -2.5155    0.0000 C   0  0  0  0  0  0  0  0  0  0  0  0
    8.1226    1.6027    0.0000 C   0  0  0  0  0  0  0  0  0  0  0  0
    8.8646    0.9323    0.0000 C   0  0  0  0  0  0  0  0  0  0  0  0
    8.5310    2.5155    0.0000 C   0  0  0  0  0  0  0  0  0  0  0  0
    5.8344    0.8594    0.0000 H   0  0  0  0  0  0  0  0  0  0  0  0
    5.2411    0.3271    0.0000 H   0  0  0  0  0  0  0  0  0  0  0  0
    3.7320    0.1045    0.0000 H   0  0  0  0  0  0  0  0  0  0  0  0
    3.7320   -3.1355    0.0000 H   0  0  0  0  0  0  0  0  0  0  0  0
    6.7479   -1.5155    0.0000 H   0  0  0  0  0  0  0  0  0  0  0  0
    2.3100    0.0214    0.0000 H   0  0  0  0  0  0  0  0  0  0  0  0
    1.4631   -0.2055    0.0000 H   0  0  0  0  0  0  0  0  0  0  0  0
    1.6900   -1.0525    0.0000 H   0  0  0  0  0  0  0  0  0  0  0  0
    1.6900   -1.9786    0.0000 H   0  0  0  0  0  0  0  0  0  0  0  0
    1.4631   -2.8255    0.0000 H   0  0  0  0  0  0  0  0  0  0  0  0
    2.3100   -3.0525    0.0000 H   0  0  0  0  0  0  0  0  0  0  0  0
    6.7301    1.8579    0.0000 H   0  0  0  0  0  0  0  0  0  0  0  0
    8.7987    0.3158    0.0000 H   0  0  0  0  0  0  0  0  0  0  0  0
    8.2219    3.0530    0.0000 H   0  0  0  0  0  0  0  0  0  0  0  0
   10.2975    1.1776    0.0000 H   0  0  0  0  0  0  0  0  0  0  0  0
  1  8  1  0  0  0  0
  1 14  1  0  0  0  0
  2 15  2  0  0  0  0
  3 15  1  0  0  0  0
  3 18  1  0  0  0  0
  3 32  1  0  0  0  0
  4  5  1  0  0  0  0
  4 19  1  0  0  0  0
  4 35  1  0  0  0  0
  5 20  2  0  0  0  0
  6  7  1  0  0  0  0
  6  8  2  0  0  0  0
  6 10  1  0  0  0  0
  7 11  1  0  0  0  0
  7 14  2  0  0  0  0
  8 13  1  0  0  0  0
  9 10  2  0  0  0  0
  9 12  1  0  0  0  0
  9 16  1  0  0  0  0
 10 23  1  0  0  0  0
 11 15  1  0  0  0  0
 11 21  1  0  0  0  0
 11 22  1  0  0  0  0
 12 13  2  0  0  0  0
 12 17  1  0  0  0  0
 13 24  1  0  0  0  0
 14 25  1  0  0  0  0
 16 26  1  0  0  0  0
 16 27  1  0  0  0  0
 16 28  1  0  0  0  0
 17 29  1  0  0  0  0
 17 30  1  0  0  0  0
 17 31  1  0  0  0  0
 18 19  2  0  0  0  0
 18 20  1  0  0  0  0
 19 33  1  0  0  0  0
 20 34  1  0  0  0  0
M  END
> <PUBCHEM_COMPOUND_CID>
47205704

> <PUBCHEM_COMPOUND_CANONICALIZED>
1

> <PUBCHEM_CACTVS_COMPLEXITY>
363

> <PUBCHEM_CACTVS_HBOND_ACCEPTOR>
3

> <PUBCHEM_CACTVS_HBOND_DONOR>
2

> <PUBCHEM_CACTVS_ROTATABLE_BOND>
3

> <PUBCHEM_CACTVS_SUBSKEYS>
AAADccBzMAAAAAAAAAAAAAAAAAAAAWJAAAAwAAAAAAAAAEgB/AAAHgAYAAAADAzhmgY+xtLjBECqAr130ACSDAAlsgAQuaEmfNgMZrKE9VuWvSCk3BGIqYe/3/Lu4AADAAAYAADAAAYAADAAAAAAAAAAAA==

> <PUBCHEM_IUPAC_OPENEYE_NAME>
2-(5,6-dimethylbenzofuran-3-yl)-N-(1H-pyrazol-4-yl)acetamide

> <PUBCHEM_IUPAC_CAS_NAME>
2-(5,6-dimethyl-3-benzofuranyl)-N-(1H-pyrazol-4-yl)acetamide

> <PUBCHEM_IUPAC_NAME>
2-(5,6-dimethyl-1-benzofuran-3-yl)-N-(1H-pyrazol-4-yl)acetamide

> <PUBCHEM_IUPAC_SYSTEMATIC_NAME>
2-(5,6-dimethyl-1-benzofuran-3-yl)-N-(1H-pyrazol-4-yl)ethanamide

> <PUBCHEM_IUPAC_TRADITIONAL_NAME>
2-(5,6-dimethylbenzofuran-3-yl)-N-(1H-pyrazol-4-yl)acetamide

> <PUBCHEM_IUPAC_INCHI>
InChI=1S/C15H15N3O2/c1-9-3-13-11(8-20-14(13)4-10(9)2)5-15(19)18-12-6-16-17-7-12/h3-4,6-8H,5H2,1-2H3,(H,16,17)(H,18,19)

> <PUBCHEM_IUPAC_INCHIKEY>
IUENPKOXPHLNDB-UHFFFAOYSA-N

> <PUBCHEM_XLOGP3_AA>
2.1

> <PUBCHEM_EXACT_MASS>
269.116427

> <PUBCHEM_MOLECULAR_FORMULA>
C15H15N3O2

> <PUBCHEM_MOLECULAR_WEIGHT>
269.2985

> <PUBCHEM_OPENEYE_CAN_SMILES>
CC1=C(C=C2C(=C1)C(=CO2)CC(=O)NC3=CNN=C3)C

> <PUBCHEM_OPENEYE_ISO_SMILES>
CC1=C(C=C2C(=C1)C(=CO2)CC(=O)NC3=CNN=C3)C

> <PUBCHEM_CACTVS_TPSA>
70.9

> <PUBCHEM_MONOISOTOPIC_WEIGHT>
269.116427

> <PUBCHEM_TOTAL_CHARGE>
0

> <PUBCHEM_HEAVY_ATOM_COUNT>
20

> <PUBCHEM_ATOM_DEF_STEREO_COUNT>
0

> <PUBCHEM_ATOM_UDEF_STEREO_COUNT>
0

> <PUBCHEM_BOND_DEF_STEREO_COUNT>
0

> <PUBCHEM_BOND_UDEF_STEREO_COUNT>
0

> <PUBCHEM_ISOTOPIC_ATOM_COUNT>
0

> <PUBCHEM_COMPONENT_COUNT>
1

> <PUBCHEM_CACTVS_TAUTO_COUNT>
3

> <PUBCHEM_COORDINATE_TYPE>
1
5
255

> <PUBCHEM_BONDANNOTATIONS>
1  14  8
1  8  8
12  13  8
18  19  8
18  20  8
4  19  8
4  5  8
5  20  8
6  10  8
6  7  8
6  8  8
7  14  8
8  13  8
9  10  8
9  12  8

$$$$

