51090910
  -OEChem-06241223002D

 46 47  0     1  0  0  0  0  0999 V2000
    2.5326   -1.4806    0.0000 O   0  0  0  0  0  0  0  0  0  0  0  0
    5.9967    2.5194    0.0000 N   0  0  0  0  0  0  0  0  0  0  0  0
    4.2647   -1.4806    0.0000 N   0  0  0  0  0  0  0  0  0  0  0  0
    2.5896   -3.5684    0.0000 N   0  0  0  0  0  0  0  0  0  0  0  0
    2.8987   -4.5194    0.0000 N   0  0  0  0  0  0  0  0  0  0  0  0
    6.8628    4.0194    0.0000 C   0  0  3  0  0  0  0  0  0  0  0  0
    5.1307    4.0194    0.0000 C   0  0  3  0  0  0  0  0  0  0  0  0
    5.9967    4.5194    0.0000 C   0  0  0  0  0  0  0  0  0  0  0  0
    5.1307    3.0194    0.0000 C   0  0  0  0  0  0  0  0  0  0  0  0
    6.8628    3.0194    0.0000 C   0  0  0  0  0  0  0  0  0  0  0  0
    5.9967    1.5194    0.0000 C   0  0  0  0  0  0  0  0  0  0  0  0
    4.2647    4.5194    0.0000 C   0  0  0  0  0  0  0  0  0  0  0  0
    7.7288    4.5194    0.0000 C   0  0  0  0  0  0  0  0  0  0  0  0
    5.1307    1.0194    0.0000 C   0  0  0  0  0  0  0  0  0  0  0  0
    5.1307    0.0194    0.0000 C   0  0  0  0  0  0  0  0  0  0  0  0
    4.2647   -0.4806    0.0000 C   0  0  0  0  0  0  0  0  0  0  0  0
    3.3987   -1.9806    0.0000 C   0  0  0  0  0  0  0  0  0  0  0  0
    3.3987   -2.9806    0.0000 C   0  0  0  0  0  0  0  0  0  0  0  0
    4.2077   -3.5684    0.0000 C   0  0  0  0  0  0  0  0  0  0  0  0
    3.8987   -4.5194    0.0000 C   0  0  0  0  0  0  0  0  0  0  0  0
    7.3997    3.7094    0.0000 H   0  0  0  0  0  0  0  0  0  0  0  0
    5.1307    4.6394    0.0000 H   0  0  0  0  0  0  0  0  0  0  0  0
    6.3953    4.9944    0.0000 H   0  0  0  0  0  0  0  0  0  0  0  0
    5.5982    4.9944    0.0000 H   0  0  0  0  0  0  0  0  0  0  0  0
    7.0748    2.4368    0.0000 H   0  0  0  0  0  0  0  0  0  0  0  0
    4.5201    3.1271    0.0000 H   0  0  0  0  0  0  0  0  0  0  0  0
    4.9187    2.4368    0.0000 H   0  0  0  0  0  0  0  0  0  0  0  0
    7.4734    3.1271    0.0000 H   0  0  0  0  0  0  0  0  0  0  0  0
    6.2088    0.9368    0.0000 H   0  0  0  0  0  0  0  0  0  0  0  0
    6.6073    1.6271    0.0000 H   0  0  0  0  0  0  0  0  0  0  0  0
    8.0388    3.9825    0.0000 H   0  0  0  0  0  0  0  0  0  0  0  0
    4.5747    5.0564    0.0000 H   0  0  0  0  0  0  0  0  0  0  0  0
    3.7278    4.8294    0.0000 H   0  0  0  0  0  0  0  0  0  0  0  0
    3.9547    3.9825    0.0000 H   0  0  0  0  0  0  0  0  0  0  0  0
    8.2657    4.8294    0.0000 H   0  0  0  0  0  0  0  0  0  0  0  0
    7.4188    5.0564    0.0000 H   0  0  0  0  0  0  0  0  0  0  0  0
    4.9187    1.6020    0.0000 H   0  0  0  0  0  0  0  0  0  0  0  0
    4.5201    0.9118    0.0000 H   0  0  0  0  0  0  0  0  0  0  0  0
    5.3428   -0.5632    0.0000 H   0  0  0  0  0  0  0  0  0  0  0  0
    5.7413    0.1271    0.0000 H   0  0  0  0  0  0  0  0  0  0  0  0
    4.0526    0.1020    0.0000 H   0  0  0  0  0  0  0  0  0  0  0  0
    3.6541   -0.5882    0.0000 H   0  0  0  0  0  0  0  0  0  0  0  0
    4.8016   -1.7906    0.0000 H   0  0  0  0  0  0  0  0  0  0  0  0
    4.7973   -3.3768    0.0000 H   0  0  0  0  0  0  0  0  0  0  0  0
    2.0000   -3.3768    0.0000 H   0  0  0  0  0  0  0  0  0  0  0  0
    4.2631   -5.0210    0.0000 H   0  0  0  0  0  0  0  0  0  0  0  0
  1 17  2  0  0  0  0
  2  9  1  0  0  0  0
  2 10  1  0  0  0  0
  2 11  1  0  0  0  0
  3 16  1  0  0  0  0
  3 17  1  0  0  0  0
  3 43  1  0  0  0  0
  4  5  1  0  0  0  0
  4 18  1  0  0  0  0
  4 45  1  0  0  0  0
  5 20  2  0  0  0  0
  6  8  1  0  0  0  0
  6 10  1  0  0  0  0
  6 13  1  0  0  0  0
  6 21  1  0  0  0  0
  7  8  1  0  0  0  0
  7  9  1  0  0  0  0
  7 12  1  0  0  0  0
  7 22  1  0  0  0  0
  8 23  1  0  0  0  0
  8 24  1  0  0  0  0
  9 26  1  0  0  0  0
  9 27  1  0  0  0  0
 10 25  1  0  0  0  0
 10 28  1  0  0  0  0
 11 14  1  0  0  0  0
 11 29  1  0  0  0  0
 11 30  1  0  0  0  0
 12 32  1  0  0  0  0
 12 33  1  0  0  0  0
 12 34  1  0  0  0  0
 13 31  1  0  0  0  0
 13 35  1  0  0  0  0
 13 36  1  0  0  0  0
 14 15  1  0  0  0  0
 14 37  1  0  0  0  0
 14 38  1  0  0  0  0
 15 16  1  0  0  0  0
 15 39  1  0  0  0  0
 15 40  1  0  0  0  0
 16 41  1  0  0  0  0
 16 42  1  0  0  0  0
 17 18  1  0  0  0  0
 18 19  2  0  0  0  0
 19 20  1  0  0  0  0
 19 44  1  0  0  0  0
 20 46  1  0  0  0  0
M  END
> <PUBCHEM_COMPOUND_CID>
51090910

> <PUBCHEM_COMPOUND_CANONICALIZED>
1

> <PUBCHEM_CACTVS_COMPLEXITY>
300

> <PUBCHEM_CACTVS_HBOND_ACCEPTOR>
3

> <PUBCHEM_CACTVS_HBOND_DONOR>
2

> <PUBCHEM_CACTVS_ROTATABLE_BOND>
6

> <PUBCHEM_CACTVS_SUBSKEYS>
AAADceBzoAAAAAAAAAAAAAAAAAAAAWAAAAAsAAAAAAAAAAABgAAAHgAYAAAADQjBlgQ+gJPjAACqATV3UACQBAAmggAYOaG4ZFgAYJIAxMEUhQhAHgCAQYAUAAAMAAAAAAAAAAAAAAAAAAAAAAAAAAAAAA==

> <PUBCHEM_IUPAC_OPENEYE_NAME>
N-[4-(3,5-dimethyl-1-piperidyl)butyl]-1H-pyrazole-5-carboxamide

> <PUBCHEM_IUPAC_CAS_NAME>
N-[4-(3,5-dimethyl-1-piperidinyl)butyl]-1H-pyrazole-5-carboxamide

> <PUBCHEM_IUPAC_NAME>
N-[4-(3,5-dimethylpiperidin-1-yl)butyl]-1H-pyrazole-5-carboxamide

> <PUBCHEM_IUPAC_SYSTEMATIC_NAME>
N-[4-(3,5-dimethylpiperidin-1-yl)butyl]-1H-pyrazole-5-carboxamide

> <PUBCHEM_IUPAC_TRADITIONAL_NAME>
N-[4-(3,5-dimethylpiperidino)butyl]-1H-pyrazole-5-carboxamide

> <PUBCHEM_IUPAC_INCHI>
InChI=1S/C15H26N4O/c1-12-9-13(2)11-19(10-12)8-4-3-6-16-15(20)14-5-7-17-18-14/h5,7,12-13H,3-4,6,8-11H2,1-2H3,(H,16,20)(H,17,18)

> <PUBCHEM_IUPAC_INCHIKEY>
OSTUWZSGCHOBBK-UHFFFAOYSA-N

> <PUBCHEM_XLOGP3_AA>
2.3

> <PUBCHEM_EXACT_MASS>
278.210661

> <PUBCHEM_MOLECULAR_FORMULA>
C15H26N4O

> <PUBCHEM_MOLECULAR_WEIGHT>
278.39314

> <PUBCHEM_OPENEYE_CAN_SMILES>
CC1CC(CN(C1)CCCCNC(=O)C2=CC=NN2)C

> <PUBCHEM_OPENEYE_ISO_SMILES>
CC1CC(CN(C1)CCCCNC(=O)C2=CC=NN2)C

> <PUBCHEM_CACTVS_TPSA>
61

> <PUBCHEM_MONOISOTOPIC_WEIGHT>
278.210661

> <PUBCHEM_TOTAL_CHARGE>
0

> <PUBCHEM_HEAVY_ATOM_COUNT>
20

> <PUBCHEM_ATOM_DEF_STEREO_COUNT>
0

> <PUBCHEM_ATOM_UDEF_STEREO_COUNT>
2

> <PUBCHEM_BOND_DEF_STEREO_COUNT>
0

> <PUBCHEM_BOND_UDEF_STEREO_COUNT>
0

> <PUBCHEM_ISOTOPIC_ATOM_COUNT>
0

> <PUBCHEM_COMPONENT_COUNT>
1

> <PUBCHEM_CACTVS_TAUTO_COUNT>
7

> <PUBCHEM_COORDINATE_TYPE>
1
5
255

> <PUBCHEM_BONDANNOTATIONS>
18  19  8
19  20  8
4  18  8
4  5  8
5  20  8
6  13  3
7  12  3

$$$$

