47205038
  -OEChem-06241222573D

 29 30  0     0  0  0  0  0  0999 V2000
   -5.3956    0.4353   -0.5457 F   0  0  0  0  0  0  0  0  0  0  0  0
   -4.7718   -1.6020   -0.9793 F   0  0  0  0  0  0  0  0  0  0  0  0
   -5.0688   -0.9760    1.0758 F   0  0  0  0  0  0  0  0  0  0  0  0
    1.3276    2.0501   -0.5555 O   0  0  0  0  0  0  0  0  0  0  0  0
    1.7349    0.4586    1.0810 N   0  0  0  0  0  0  0  0  0  0  0  0
    4.3086   -1.2982    0.5250 N   0  0  0  0  0  0  0  0  0  0  0  0
    5.1270   -1.8065   -0.4121 N   0  0  0  0  0  0  0  0  0  0  0  0
    3.1284    0.7821    1.2866 C   0  0  0  0  0  0  0  0  0  0  0  0
   -0.4747    0.6958    0.0892 C   0  0  0  0  0  0  0  0  0  0  0  0
    4.0251    0.0245    0.3504 C   0  0  0  0  0  0  0  0  0  0  0  0
    0.9140    1.1218    0.1615 C   0  0  0  0  0  0  0  0  0  0  0  0
   -3.1383   -0.1223   -0.0493 C   0  0  0  0  0  0  0  0  0  0  0  0
   -1.4589    1.5923   -0.3272 C   0  0  0  0  0  0  0  0  0  0  0  0
   -0.8223   -0.6098    0.4366 C   0  0  0  0  0  0  0  0  0  0  0  0
   -2.7906    1.1833   -0.3967 C   0  0  0  0  0  0  0  0  0  0  0  0
   -2.1541   -1.0188    0.3674 C   0  0  0  0  0  0  0  0  0  0  0  0
    4.7057    0.4084   -0.7792 C   0  0  0  0  0  0  0  0  0  0  0  0
   -4.5624   -0.5593   -0.1223 C   0  0  0  0  0  0  0  0  0  0  0  0
    5.3661   -0.7592   -1.2060 C   0  0  0  0  0  0  0  0  0  0  0  0
    3.3747    0.5378    2.3256 H   0  0  0  0  0  0  0  0  0  0  0  0
    3.2701    1.8599    1.1509 H   0  0  0  0  0  0  0  0  0  0  0  0
    1.3482   -0.2586    1.6850 H   0  0  0  0  0  0  0  0  0  0  0  0
   -1.2094    2.6150   -0.5978 H   0  0  0  0  0  0  0  0  0  0  0  0
   -0.0852   -1.3494    0.7348 H   0  0  0  0  0  0  0  0  0  0  0  0
   -3.5421    1.8971   -0.7226 H   0  0  0  0  0  0  0  0  0  0  0  0
   -2.4150   -2.0398    0.6333 H   0  0  0  0  0  0  0  0  0  0  0  0
    4.7213    1.3900   -1.2299 H   0  0  0  0  0  0  0  0  0  0  0  0
    3.9789   -1.9143    1.2577 H   0  0  0  0  0  0  0  0  0  0  0  0
    6.0114   -0.8905   -2.0626 H   0  0  0  0  0  0  0  0  0  0  0  0
  1 18  1  0  0  0  0
  2 18  1  0  0  0  0
  3 18  1  0  0  0  0
  4 11  2  0  0  0  0
  5  8  1  0  0  0  0
  5 11  1  0  0  0  0
  5 22  1  0  0  0  0
  6  7  1  0  0  0  0
  6 10  1  0  0  0  0
  6 28  1  0  0  0  0
  7 19  2  0  0  0  0
  8 10  1  0  0  0  0
  8 20  1  0  0  0  0
  8 21  1  0  0  0  0
  9 11  1  0  0  0  0
  9 13  2  0  0  0  0
  9 14  1  0  0  0  0
 10 17  2  0  0  0  0
 12 15  2  0  0  0  0
 12 16  1  0  0  0  0
 12 18  1  0  0  0  0
 13 15  1  0  0  0  0
 13 23  1  0  0  0  0
 14 16  2  0  0  0  0
 14 24  1  0  0  0  0
 15 25  1  0  0  0  0
 16 26  1  0  0  0  0
 17 19  1  0  0  0  0
 17 27  1  0  0  0  0
 19 29  1  0  0  0  0
M  END
> <PUBCHEM_COMPOUND_CID>
47205038

> <PUBCHEM_CONFORMER_RMSD>
0.6

> <PUBCHEM_CONFORMER_DIVERSEORDER>
1
26
17
14
5
11
18
25
19
27
24
8
20
23
12
4
15
21
13
7
16
3
9
22
10
2
6

> <PUBCHEM_MMFF94_PARTIAL_CHARGES>
27
1 -0.34
10 -0.33
11 0.54
12 -0.14
13 -0.15
14 -0.15
15 -0.15
16 -0.15
17 -0.15
18 1.16
19 0.14
2 -0.34
22 0.37
23 0.15
24 0.15
25 0.15
26 0.15
27 0.15
28 0.27
29 0.15
3 -0.34
4 -0.57
5 -0.73
6 0.3
7 -0.71
8 0.48
9 0.09

> <PUBCHEM_EFFECTIVE_ROTOR_COUNT>
5

> <PUBCHEM_PHARMACOPHORE_FEATURES>
6
1 4 acceptor
1 5 donor
1 6 donor
1 7 acceptor
5 6 7 10 17 19 rings
6 9 12 13 14 15 16 rings

> <PUBCHEM_HEAVY_ATOM_COUNT>
19

> <PUBCHEM_ATOM_DEF_STEREO_COUNT>
0

> <PUBCHEM_ATOM_UDEF_STEREO_COUNT>
0

> <PUBCHEM_BOND_DEF_STEREO_COUNT>
0

> <PUBCHEM_BOND_UDEF_STEREO_COUNT>
0

> <PUBCHEM_ISOTOPIC_ATOM_COUNT>
0

> <PUBCHEM_COMPONENT_COUNT>
1

> <PUBCHEM_CACTVS_TAUTO_COUNT>
4

> <PUBCHEM_CONFORMER_ID>
02D04AAE00000001

> <PUBCHEM_MMFF94_ENERGY>
29.1827

> <PUBCHEM_FEATURE_SELFOVERLAP>
30.446

> <PUBCHEM_SHAPE_FINGERPRINT>
10014705 185 10087636001022060881
11128504 68 17346594175634500204
117890 112 10735881672521522542
12236239 1 16988846085810600504
12596602 18 14706933934328037878
12616999 72 16773804705556966970
12670543 26 18272098222928154341
13167823 11 17749114348418036879
13288520 33 18409165528168455813
13533116 47 17967533424160496480
13862211 1 18412270527446270667
13914758 101 16515683394944730233
13955234 65 18042128661667217704
14251718 22 17418090992650711604
14366163 111 16056882425063233436
14455015 7 18260545627910314322
14528608 73 15195283118878529054
17804303 29 18409450284347388257
17834072 33 17775565321195971140
17844677 252 18187081754153344056
17870717 6 18273495684937536871
17959699 21 11959741485567106766
18222031 100 18411991234265291553
19141452 34 18041000605259303231
193927 3 18343016666694806129
200 152 17749111088637923553
20374829 77 18410859901720509914
20388580 30 18341607106068979876
20645477 70 18040715870887315094
20871999 31 17988922301449909452
21150785 3 12319458741499551203
21267235 1 18343016663127832467
2215653 11 18409454691194447407
22950370 63 18410569600206386144
2297311 6 18342170077275340541
23175994 123 17967536770219926281
23402539 116 17749113288194182285
23559900 14 18338803312257004104
23590187 198 17821446850770506183
239999 70 18259984869350192822
2767999 5 9583518698367900258
2838139 119 12175619555989734158
2871803 45 18343582971439834618
2916195 48 10303813176876806591
3004659 81 18059857311876080610
34797466 226 14764337262759643059
351380 3 18260548926746138038
3545911 37 9295290551942375768
4047638 21 10807938176302376096
4072396 5 5833994936036316456
42 15 17385721387392934297
465052 167 17603581924756853494
5104073 3 17822859796458732384
5374978 207 7565344236845090258
960060 61 18343861109210937230

> <PUBCHEM_SHAPE_MULTIPOLES>
348.38
13.06
1.65
1.02
1.44
0.07
0.07
-5.98
-2.58
0.18
-0.21
0.58
-0.03
0.5

> <PUBCHEM_SHAPE_SELFOVERLAP>
747.962

> <PUBCHEM_SHAPE_VOLUME>
192.9

> <PUBCHEM_COORDINATE_TYPE>
2
5
10

$$$$

