9089
  -OEChem-06261203232D

 15 16  0     0  0  0  0  0  0999 V2000
    2.7071    1.4142    0.0000 O   0  0  0  0  0  0  0  0  0  0  0  0
    2.7071   -1.4142    0.0000 O   0  0  0  0  0  0  0  0  0  0  0  0
    2.7071    0.0000    0.0000 C   0  0  0  0  0  0  0  0  0  0  0  0
    3.4142    0.7071    0.0000 C   0  0  0  0  0  0  0  0  0  0  0  0
    2.0000    0.7071    0.0000 C   0  0  0  0  0  0  0  0  0  0  0  0
    2.0000   -0.7071    0.0000 C   0  0  0  0  0  0  0  0  0  0  0  0
    3.4142   -0.7071    0.0000 C   0  0  0  0  0  0  0  0  0  0  0  0
    3.8526    0.2687    0.0000 H   0  0  0  0  0  0  0  0  0  0  0  0
    3.8526    1.1455    0.0000 H   0  0  0  0  0  0  0  0  0  0  0  0
    1.5616    1.1455    0.0000 H   0  0  0  0  0  0  0  0  0  0  0  0
    1.5616    0.2687    0.0000 H   0  0  0  0  0  0  0  0  0  0  0  0
    1.5616   -0.2687    0.0000 H   0  0  0  0  0  0  0  0  0  0  0  0
    1.5616   -1.1455    0.0000 H   0  0  0  0  0  0  0  0  0  0  0  0
    3.8526   -1.1455    0.0000 H   0  0  0  0  0  0  0  0  0  0  0  0
    3.8526   -0.2687    0.0000 H   0  0  0  0  0  0  0  0  0  0  0  0
  1  4  1  0  0  0  0
  1  5  1  0  0  0  0
  2  6  1  0  0  0  0
  2  7  1  0  0  0  0
  3  4  1  0  0  0  0
  3  5  1  0  0  0  0
  3  6  1  0  0  0  0
  3  7  1  0  0  0  0
  4  8  1  0  0  0  0
  4  9  1  0  0  0  0
  5 10  1  0  0  0  0
  5 11  1  0  0  0  0
  6 12  1  0  0  0  0
  6 13  1  0  0  0  0
  7 14  1  0  0  0  0
  7 15  1  0  0  0  0
M  END
> <PUBCHEM_COMPOUND_CID>
9089

> <PUBCHEM_COMPOUND_CANONICALIZED>
1

> <PUBCHEM_CACTVS_COMPLEXITY>
66.6

> <PUBCHEM_CACTVS_HBOND_ACCEPTOR>
2

> <PUBCHEM_CACTVS_HBOND_DONOR>
0

> <PUBCHEM_CACTVS_ROTATABLE_BOND>
0

> <PUBCHEM_CACTVS_SUBSKEYS>
AAADccBgMAAAAAAAAAAAAAAAAABIkAAAAAAAAAAAAAAAAAAAAAAAGgAAAAAADgCggAIAAAAABAAAAAAAAAAAAAAAAAAAAAAAAAAAAAAAAAAAAAABAAAAAAAAAAAAAAAAAAAAAAAAAAAAAAAAAAAAAAAAAA==

> <PUBCHEM_IUPAC_OPENEYE_NAME>
2,6-dioxaspiro[3.3]heptane

> <PUBCHEM_IUPAC_CAS_NAME>
2,6-dioxaspiro[3.3]heptane

> <PUBCHEM_IUPAC_NAME>
2,6-dioxaspiro[3.3]heptane

> <PUBCHEM_IUPAC_SYSTEMATIC_NAME>
2,6-dioxaspiro[3.3]heptane

> <PUBCHEM_IUPAC_TRADITIONAL_NAME>
2,6-dioxaspiro[3.3]heptane

> <PUBCHEM_IUPAC_INCHI>
InChI=1S/C5H8O2/c1-5(2-6-1)3-7-4-5/h1-4H2

> <PUBCHEM_IUPAC_INCHIKEY>
XQLZHIBLSSHZAL-UHFFFAOYSA-N

> <PUBCHEM_XLOGP3_AA>
-0.4

> <PUBCHEM_EXACT_MASS>
100.052429

> <PUBCHEM_MOLECULAR_FORMULA>
C5H8O2

> <PUBCHEM_MOLECULAR_WEIGHT>
100.11582

> <PUBCHEM_OPENEYE_CAN_SMILES>
C1C2(CO1)COC2

> <PUBCHEM_OPENEYE_ISO_SMILES>
C1C2(CO1)COC2

> <PUBCHEM_CACTVS_TPSA>
18.5

> <PUBCHEM_MONOISOTOPIC_WEIGHT>
100.052429

> <PUBCHEM_TOTAL_CHARGE>
0

> <PUBCHEM_HEAVY_ATOM_COUNT>
7

> <PUBCHEM_ATOM_DEF_STEREO_COUNT>
0

> <PUBCHEM_ATOM_UDEF_STEREO_COUNT>
0

> <PUBCHEM_BOND_DEF_STEREO_COUNT>
0

> <PUBCHEM_BOND_UDEF_STEREO_COUNT>
0

> <PUBCHEM_ISOTOPIC_ATOM_COUNT>
0

> <PUBCHEM_COMPONENT_COUNT>
1

> <PUBCHEM_CACTVS_TAUTO_COUNT>
1

> <PUBCHEM_COORDINATE_TYPE>
1
5
255

$$$$

