17396193
  -OEChem-06241222552D

 45 47  0     1  0  0  0  0  0999 V2000
    6.3301   -2.4400    0.0000 S   0  0  0  0  0  0  0  0  0  0  0  0
    4.5981   -4.4400    0.0000 O   0  0  0  0  0  0  0  0  0  0  0  0
    5.4641   -0.9400    0.0000 O   0  0  0  0  0  0  0  0  0  0  0  0
    2.8660    4.5600    0.0000 O   0  0  0  0  0  0  0  0  0  0  0  0
    6.3301   -4.4400    0.0000 N   0  0  0  0  0  0  0  0  0  0  0  0
    3.7320   -0.9400    0.0000 N   0  0  0  0  0  0  0  0  0  0  0  0
    5.4641   -2.9400    0.0000 C   0  0  3  0  0  0  0  0  0  0  0  0
    4.5981   -2.4400    0.0000 C   0  0  0  0  0  0  0  0  0  0  0  0
    5.4641   -3.9400    0.0000 C   0  0  0  0  0  0  0  0  0  0  0  0
    3.7320    0.0600    0.0000 C   0  0  0  0  0  0  0  0  0  0  0  0
    7.1962   -2.9400    0.0000 C   0  0  0  0  0  0  0  0  0  0  0  0
    2.8660    0.5600    0.0000 C   0  0  0  0  0  0  0  0  0  0  0  0
    4.5981   -1.4400    0.0000 C   0  0  0  0  0  0  0  0  0  0  0  0
    7.1962   -3.9400    0.0000 C   0  0  0  0  0  0  0  0  0  0  0  0
    2.8660    1.5600    0.0000 C   0  0  0  0  0  0  0  0  0  0  0  0
    8.0901   -2.4053    0.0000 C   0  0  0  0  0  0  0  0  0  0  0  0
    8.0901   -4.4747    0.0000 C   0  0  0  0  0  0  0  0  0  0  0  0
    3.7320    2.0600    0.0000 C   0  0  0  0  0  0  0  0  0  0  0  0
    2.0000    2.0600    0.0000 C   0  0  0  0  0  0  0  0  0  0  0  0
    8.9962   -2.9192    0.0000 C   0  0  0  0  0  0  0  0  0  0  0  0
    8.9962   -3.9608    0.0000 C   0  0  0  0  0  0  0  0  0  0  0  0
    3.7320    3.0600    0.0000 C   0  0  0  0  0  0  0  0  0  0  0  0
    2.0000    3.0600    0.0000 C   0  0  0  0  0  0  0  0  0  0  0  0
    2.8660    3.5600    0.0000 C   0  0  0  0  0  0  0  0  0  0  0  0
    2.0000    5.0600    0.0000 C   0  0  0  0  0  0  0  0  0  0  0  0
    5.4641   -2.3200    0.0000 H   0  0  0  0  0  0  0  0  0  0  0  0
    3.9875   -2.3323    0.0000 H   0  0  0  0  0  0  0  0  0  0  0  0
    4.3860   -3.0226    0.0000 H   0  0  0  0  0  0  0  0  0  0  0  0
    4.3426   -0.0477    0.0000 H   0  0  0  0  0  0  0  0  0  0  0  0
    3.9441    0.6426    0.0000 H   0  0  0  0  0  0  0  0  0  0  0  0
    2.2554    0.6677    0.0000 H   0  0  0  0  0  0  0  0  0  0  0  0
    2.6540   -0.0226    0.0000 H   0  0  0  0  0  0  0  0  0  0  0  0
    6.3301   -5.0600    0.0000 H   0  0  0  0  0  0  0  0  0  0  0  0
    3.1951   -1.2500    0.0000 H   0  0  0  0  0  0  0  0  0  0  0  0
    8.0829   -1.7854    0.0000 H   0  0  0  0  0  0  0  0  0  0  0  0
    8.0829   -5.0946    0.0000 H   0  0  0  0  0  0  0  0  0  0  0  0
    4.2690    1.7500    0.0000 H   0  0  0  0  0  0  0  0  0  0  0  0
    1.4631    1.7500    0.0000 H   0  0  0  0  0  0  0  0  0  0  0  0
    9.5319   -2.6071    0.0000 H   0  0  0  0  0  0  0  0  0  0  0  0
    9.5319   -4.2729    0.0000 H   0  0  0  0  0  0  0  0  0  0  0  0
    4.2690    3.3700    0.0000 H   0  0  0  0  0  0  0  0  0  0  0  0
    1.4631    3.3700    0.0000 H   0  0  0  0  0  0  0  0  0  0  0  0
    2.3100    5.5969    0.0000 H   0  0  0  0  0  0  0  0  0  0  0  0
    1.4631    5.3700    0.0000 H   0  0  0  0  0  0  0  0  0  0  0  0
    1.6900    4.5231    0.0000 H   0  0  0  0  0  0  0  0  0  0  0  0
  1  7  1  0  0  0  0
  1 11  1  0  0  0  0
  2  9  2  0  0  0  0
  3 13  2  0  0  0  0
  4 24  1  0  0  0  0
  4 25  1  0  0  0  0
  5  9  1  0  0  0  0
  5 14  1  0  0  0  0
  5 33  1  0  0  0  0
  6 10  1  0  0  0  0
  6 13  1  0  0  0  0
  6 34  1  0  0  0  0
  7  8  1  0  0  0  0
  7  9  1  0  0  0  0
  7 26  1  0  0  0  0
  8 13  1  0  0  0  0
  8 27  1  0  0  0  0
  8 28  1  0  0  0  0
 10 12  1  0  0  0  0
 10 29  1  0  0  0  0
 10 30  1  0  0  0  0
 11 14  1  0  0  0  0
 11 16  2  0  0  0  0
 12 15  1  0  0  0  0
 12 31  1  0  0  0  0
 12 32  1  0  0  0  0
 14 17  2  0  0  0  0
 15 18  2  0  0  0  0
 15 19  1  0  0  0  0
 16 20  1  0  0  0  0
 16 35  1  0  0  0  0
 17 21  1  0  0  0  0
 17 36  1  0  0  0  0
 18 22  1  0  0  0  0
 18 37  1  0  0  0  0
 19 23  2  0  0  0  0
 19 38  1  0  0  0  0
 20 21  2  0  0  0  0
 20 39  1  0  0  0  0
 21 40  1  0  0  0  0
 22 24  2  0  0  0  0
 22 41  1  0  0  0  0
 23 24  1  0  0  0  0
 23 42  1  0  0  0  0
 25 43  1  0  0  0  0
 25 44  1  0  0  0  0
 25 45  1  0  0  0  0
M  END
> <PUBCHEM_COMPOUND_CID>
17396193

> <PUBCHEM_COMPOUND_CANONICALIZED>
1

> <PUBCHEM_CACTVS_COMPLEXITY>
466

> <PUBCHEM_CACTVS_HBOND_ACCEPTOR>
4

> <PUBCHEM_CACTVS_HBOND_DONOR>
2

> <PUBCHEM_CACTVS_ROTATABLE_BOND>
6

> <PUBCHEM_CACTVS_SUBSKEYS>
AAADceB7MABAAAAAAAAAAAAAAAAAAAAAAAA8YIAAAAAAAACxQAAAHgQQAAAADAzF2Aayx4LABAiIAiVSUACCCAAhKhAIiJ0ObIgMJjLksZuEMChk1hHo6AeVwIAOIAAAAAAAAQBAAAAAAAACAAAAAAAAAA==

> <PUBCHEM_IUPAC_OPENEYE_NAME>
N-[2-(4-methoxyphenyl)ethyl]-2-(3-oxo-4H-1,4-benzothiazin-2-yl)acetamide

> <PUBCHEM_IUPAC_CAS_NAME>
N-[2-(4-methoxyphenyl)ethyl]-2-(3-oxo-4H-1,4-benzothiazin-2-yl)acetamide

> <PUBCHEM_IUPAC_NAME>
N-[2-(4-methoxyphenyl)ethyl]-2-(3-oxo-4H-1,4-benzothiazin-2-yl)acetamide

> <PUBCHEM_IUPAC_SYSTEMATIC_NAME>
N-[2-(4-methoxyphenyl)ethyl]-2-(3-oxidanylidene-4H-1,4-benzothiazin-2-yl)ethanamide

> <PUBCHEM_IUPAC_TRADITIONAL_NAME>
2-(3-keto-4H-1,4-benzothiazin-2-yl)-N-[2-(4-methoxyphenyl)ethyl]acetamide

> <PUBCHEM_IUPAC_INCHI>
InChI=1S/C19H20N2O3S/c1-24-14-8-6-13(7-9-14)10-11-20-18(22)12-17-19(23)21-15-4-2-3-5-16(15)25-17/h2-9,17H,10-12H2,1H3,(H,20,22)(H,21,23)

> <PUBCHEM_IUPAC_INCHIKEY>
SKXZVTGDWPPYHQ-UHFFFAOYSA-N

> <PUBCHEM_XLOGP3_AA>
2.6

> <PUBCHEM_EXACT_MASS>
356.119464

> <PUBCHEM_MOLECULAR_FORMULA>
C19H20N2O3S

> <PUBCHEM_MOLECULAR_WEIGHT>
356.4387

> <PUBCHEM_OPENEYE_CAN_SMILES>
COC1=CC=C(C=C1)CCNC(=O)CC2C(=O)NC3=CC=CC=C3S2

> <PUBCHEM_OPENEYE_ISO_SMILES>
COC1=CC=C(C=C1)CCNC(=O)CC2C(=O)NC3=CC=CC=C3S2

> <PUBCHEM_CACTVS_TPSA>
92.7

> <PUBCHEM_MONOISOTOPIC_WEIGHT>
356.119464

> <PUBCHEM_TOTAL_CHARGE>
0

> <PUBCHEM_HEAVY_ATOM_COUNT>
25

> <PUBCHEM_ATOM_DEF_STEREO_COUNT>
0

> <PUBCHEM_ATOM_UDEF_STEREO_COUNT>
1

> <PUBCHEM_BOND_DEF_STEREO_COUNT>
0

> <PUBCHEM_BOND_UDEF_STEREO_COUNT>
0

> <PUBCHEM_ISOTOPIC_ATOM_COUNT>
0

> <PUBCHEM_COMPONENT_COUNT>
1

> <PUBCHEM_CACTVS_TAUTO_COUNT>
6

> <PUBCHEM_COORDINATE_TYPE>
1
5
255

> <PUBCHEM_BONDANNOTATIONS>
11  14  8
11  16  8
14  17  8
15  18  8
15  19  8
16  20  8
17  21  8
18  22  8
19  23  8
20  21  8
22  24  8
23  24  8
7  8  3

$$$$

