11380
  -OEChem-06261205362D

 37 37  0     0  0  0  0  0  0999 V2000
    5.4641    2.2500    0.0000 Cl  0  0  0  0  0  0  0  0  0  0  0  0
    7.1962   -0.7500    0.0000 N   0  0  0  0  0  0  0  0  0  0  0  0
    3.7320   -0.7500    0.0000 N   0  0  0  0  0  0  0  0  0  0  0  0
    5.4641   -0.7500    0.0000 N   0  0  0  0  0  0  0  0  0  0  0  0
    4.5981    0.7500    0.0000 N   0  0  0  0  0  0  0  0  0  0  0  0
    6.3301    0.7500    0.0000 N   0  0  0  0  0  0  0  0  0  0  0  0
    8.0622   -0.2500    0.0000 C   0  0  0  0  0  0  0  0  0  0  0  0
    7.1962   -1.7500    0.0000 C   0  0  0  0  0  0  0  0  0  0  0  0
    2.8660   -0.2500    0.0000 C   0  0  0  0  0  0  0  0  0  0  0  0
    3.7320   -1.7500    0.0000 C   0  0  0  0  0  0  0  0  0  0  0  0
    6.3301   -0.2500    0.0000 C   0  0  0  0  0  0  0  0  0  0  0  0
    4.5981   -0.2500    0.0000 C   0  0  0  0  0  0  0  0  0  0  0  0
    8.0622   -2.2500    0.0000 C   0  0  0  0  0  0  0  0  0  0  0  0
    8.9282   -0.7500    0.0000 C   0  0  0  0  0  0  0  0  0  0  0  0
    2.8660   -2.2500    0.0000 C   0  0  0  0  0  0  0  0  0  0  0  0
    2.0000   -0.7500    0.0000 C   0  0  0  0  0  0  0  0  0  0  0  0
    5.4641    1.2500    0.0000 C   0  0  0  0  0  0  0  0  0  0  0  0
    6.5856   -1.6423    0.0000 H   0  0  0  0  0  0  0  0  0  0  0  0
    6.9841   -2.3326    0.0000 H   0  0  0  0  0  0  0  0  0  0  0  0
    8.4607    0.2249    0.0000 H   0  0  0  0  0  0  0  0  0  0  0  0
    7.6636    0.2249    0.0000 H   0  0  0  0  0  0  0  0  0  0  0  0
    3.9441   -2.3326    0.0000 H   0  0  0  0  0  0  0  0  0  0  0  0
    4.3426   -1.6423    0.0000 H   0  0  0  0  0  0  0  0  0  0  0  0
    3.2646    0.2249    0.0000 H   0  0  0  0  0  0  0  0  0  0  0  0
    2.4675    0.2249    0.0000 H   0  0  0  0  0  0  0  0  0  0  0  0
    7.7522   -2.7869    0.0000 H   0  0  0  0  0  0  0  0  0  0  0  0
    8.5991   -2.5600    0.0000 H   0  0  0  0  0  0  0  0  0  0  0  0
    8.3722   -1.7131    0.0000 H   0  0  0  0  0  0  0  0  0  0  0  0
    8.6182   -1.2869    0.0000 H   0  0  0  0  0  0  0  0  0  0  0  0
    9.4651   -1.0600    0.0000 H   0  0  0  0  0  0  0  0  0  0  0  0
    9.2382   -0.2131    0.0000 H   0  0  0  0  0  0  0  0  0  0  0  0
    1.6900   -0.2131    0.0000 H   0  0  0  0  0  0  0  0  0  0  0  0
    2.5560   -1.7131    0.0000 H   0  0  0  0  0  0  0  0  0  0  0  0
    2.3291   -2.5600    0.0000 H   0  0  0  0  0  0  0  0  0  0  0  0
    3.1760   -2.7869    0.0000 H   0  0  0  0  0  0  0  0  0  0  0  0
    1.4631   -1.0600    0.0000 H   0  0  0  0  0  0  0  0  0  0  0  0
    2.3100   -1.2869    0.0000 H   0  0  0  0  0  0  0  0  0  0  0  0
  1 17  1  0  0  0  0
  2  7  1  0  0  0  0
  2  8  1  0  0  0  0
  2 11  1  0  0  0  0
  3  9  1  0  0  0  0
  3 10  1  0  0  0  0
  3 12  1  0  0  0  0
  4 11  2  0  0  0  0
  4 12  1  0  0  0  0
  5 12  2  0  0  0  0
  5 17  1  0  0  0  0
  6 11  1  0  0  0  0
  6 17  2  0  0  0  0
  7 14  1  0  0  0  0
  7 20  1  0  0  0  0
  7 21  1  0  0  0  0
  8 13  1  0  0  0  0
  8 18  1  0  0  0  0
  8 19  1  0  0  0  0
  9 16  1  0  0  0  0
  9 24  1  0  0  0  0
  9 25  1  0  0  0  0
 10 15  1  0  0  0  0
 10 22  1  0  0  0  0
 10 23  1  0  0  0  0
 13 26  1  0  0  0  0
 13 27  1  0  0  0  0
 13 28  1  0  0  0  0
 14 29  1  0  0  0  0
 14 30  1  0  0  0  0
 14 31  1  0  0  0  0
 15 33  1  0  0  0  0
 15 34  1  0  0  0  0
 15 35  1  0  0  0  0
 16 32  1  0  0  0  0
 16 36  1  0  0  0  0
 16 37  1  0  0  0  0
M  END
> <PUBCHEM_COMPOUND_CID>
11380

> <PUBCHEM_COMPOUND_CANONICALIZED>
1

> <PUBCHEM_CACTVS_COMPLEXITY>
188

> <PUBCHEM_CACTVS_HBOND_ACCEPTOR>
5

> <PUBCHEM_CACTVS_HBOND_DONOR>
0

> <PUBCHEM_CACTVS_ROTATABLE_BOND>
6

> <PUBCHEM_CACTVS_SUBSKEYS>
AAADceBzgAAEAAAAAAAAAAAAAAAAAAAAAAAsAAAAAAAAAAABgAAAHAIAAAAAAADBAAQDEAcIEAAgAAAAJAAAAAkAAIABAAAIAACACAAACAAAAAAIAAKAAAAAAAAAAAAAAAAAAAAAAAAAAAAAAAAAAAAAAA==

> <PUBCHEM_IUPAC_OPENEYE_NAME>
6-chloro-N2,N2,N4,N4-tetraethyl-1,3,5-triazine-2,4-diamine

> <PUBCHEM_IUPAC_CAS_NAME>
6-chloro-N2,N2,N4,N4-tetraethyl-1,3,5-triazine-2,4-diamine

> <PUBCHEM_IUPAC_NAME>
6-chloro-2-N,2-N,4-N,4-N-tetraethyl-1,3,5-triazine-2,4-diamine

> <PUBCHEM_IUPAC_SYSTEMATIC_NAME>
6-chloranyl-N2,N2,N4,N4-tetraethyl-1,3,5-triazine-2,4-diamine

> <PUBCHEM_IUPAC_TRADITIONAL_NAME>
[4-chloro-6-(diethylamino)-s-triazin-2-yl]-diethyl-amine

> <PUBCHEM_IUPAC_INCHI>
InChI=1S/C11H20ClN5/c1-5-16(6-2)10-13-9(12)14-11(15-10)17(7-3)8-4/h5-8H2,1-4H3

> <PUBCHEM_IUPAC_INCHIKEY>
QHXDTLYEHWXDSO-UHFFFAOYSA-N

> <PUBCHEM_XLOGP3>
3.8

> <PUBCHEM_EXACT_MASS>
257.140723

> <PUBCHEM_MOLECULAR_FORMULA>
C11H20ClN5

> <PUBCHEM_MOLECULAR_WEIGHT>
257.763

> <PUBCHEM_OPENEYE_CAN_SMILES>
CCN(CC)C1=NC(=NC(=N1)Cl)N(CC)CC

> <PUBCHEM_OPENEYE_ISO_SMILES>
CCN(CC)C1=NC(=NC(=N1)Cl)N(CC)CC

> <PUBCHEM_CACTVS_TPSA>
45.2

> <PUBCHEM_MONOISOTOPIC_WEIGHT>
257.140723

> <PUBCHEM_TOTAL_CHARGE>
0

> <PUBCHEM_HEAVY_ATOM_COUNT>
17

> <PUBCHEM_ATOM_DEF_STEREO_COUNT>
0

> <PUBCHEM_ATOM_UDEF_STEREO_COUNT>
0

> <PUBCHEM_BOND_DEF_STEREO_COUNT>
0

> <PUBCHEM_BOND_UDEF_STEREO_COUNT>
0

> <PUBCHEM_ISOTOPIC_ATOM_COUNT>
0

> <PUBCHEM_COMPONENT_COUNT>
1

> <PUBCHEM_CACTVS_TAUTO_COUNT>
1

> <PUBCHEM_COORDINATE_TYPE>
1
5
255

> <PUBCHEM_BONDANNOTATIONS>
4  11  8
4  12  8
5  12  8
5  17  8
6  11  8
6  17  8

$$$$

