12894
  -OEChem-06261207302D

 31 32  0     0  0  0  0  0  0999 V2000
    3.0000    0.3470    0.0000 S   0  0  0  0  0  0  0  0  0  0  0  0
    3.9706    2.8415    0.0000 O   0  0  0  0  0  0  0  0  0  0  0  0
    4.0000    0.3470    0.0000 O   0  0  0  0  0  0  0  0  0  0  0  0
    2.0000    0.3470    0.0000 O   0  0  0  0  0  0  0  0  0  0  0  0
    3.0000    1.3470    0.0000 N   0  0  0  0  0  0  0  0  0  0  0  0
    4.7796    1.4403    0.0000 N   0  0  0  0  0  0  0  0  0  0  0  0
    3.0000   -3.6530    0.0000 N   0  0  0  0  0  0  0  0  0  0  0  0
    3.0000   -0.6530    0.0000 C   0  0  0  0  0  0  0  0  0  0  0  0
    3.8660    1.8470    0.0000 C   0  0  0  0  0  0  0  0  0  0  0  0
    4.9487    3.0494    0.0000 C   0  0  0  0  0  0  0  0  0  0  0  0
    5.4487    2.1834    0.0000 C   0  0  0  0  0  0  0  0  0  0  0  0
    2.1340   -1.1530    0.0000 C   0  0  0  0  0  0  0  0  0  0  0  0
    3.8660   -1.1530    0.0000 C   0  0  0  0  0  0  0  0  0  0  0  0
    2.1340   -2.1530    0.0000 C   0  0  0  0  0  0  0  0  0  0  0  0
    3.8660   -2.1530    0.0000 C   0  0  0  0  0  0  0  0  0  0  0  0
    3.0000   -2.6530    0.0000 C   0  0  0  0  0  0  0  0  0  0  0  0
    5.3554    3.9630    0.0000 C   0  0  0  0  0  0  0  0  0  0  0  0
    6.4432    2.0789    0.0000 C   0  0  0  0  0  0  0  0  0  0  0  0
    2.4631    1.6570    0.0000 H   0  0  0  0  0  0  0  0  0  0  0  0
    1.5970   -0.8430    0.0000 H   0  0  0  0  0  0  0  0  0  0  0  0
    4.4030   -0.8430    0.0000 H   0  0  0  0  0  0  0  0  0  0  0  0
    1.5970   -2.4630    0.0000 H   0  0  0  0  0  0  0  0  0  0  0  0
    4.4030   -2.4630    0.0000 H   0  0  0  0  0  0  0  0  0  0  0  0
    5.9218    3.7108    0.0000 H   0  0  0  0  0  0  0  0  0  0  0  0
    5.6076    4.5294    0.0000 H   0  0  0  0  0  0  0  0  0  0  0  0
    4.7890    4.2152    0.0000 H   0  0  0  0  0  0  0  0  0  0  0  0
    6.3784    1.4623    0.0000 H   0  0  0  0  0  0  0  0  0  0  0  0
    7.0598    2.0141    0.0000 H   0  0  0  0  0  0  0  0  0  0  0  0
    6.5080    2.6955    0.0000 H   0  0  0  0  0  0  0  0  0  0  0  0
    2.4631   -3.9630    0.0000 H   0  0  0  0  0  0  0  0  0  0  0  0
    3.5369   -3.9630    0.0000 H   0  0  0  0  0  0  0  0  0  0  0  0
  1  3  2  0  0  0  0
  1  4  2  0  0  0  0
  1  5  1  0  0  0  0
  1  8  1  0  0  0  0
  2  9  1  0  0  0  0
  2 10  1  0  0  0  0
  5  9  1  0  0  0  0
  5 19  1  0  0  0  0
  6  9  2  0  0  0  0
  6 11  1  0  0  0  0
  7 16  1  0  0  0  0
  7 30  1  0  0  0  0
  7 31  1  0  0  0  0
  8 12  2  0  0  0  0
  8 13  1  0  0  0  0
 10 11  2  0  0  0  0
 10 17  1  0  0  0  0
 11 18  1  0  0  0  0
 12 14  1  0  0  0  0
 12 20  1  0  0  0  0
 13 15  2  0  0  0  0
 13 21  1  0  0  0  0
 14 16  2  0  0  0  0
 14 22  1  0  0  0  0
 15 16  1  0  0  0  0
 15 23  1  0  0  0  0
 17 24  1  0  0  0  0
 17 25  1  0  0  0  0
 17 26  1  0  0  0  0
 18 27  1  0  0  0  0
 18 28  1  0  0  0  0
 18 29  1  0  0  0  0
M  END
> <PUBCHEM_COMPOUND_CID>
12894

> <PUBCHEM_COMPOUND_CANONICALIZED>
1

> <PUBCHEM_CACTVS_COMPLEXITY>
374

> <PUBCHEM_CACTVS_HBOND_ACCEPTOR>
6

> <PUBCHEM_CACTVS_HBOND_DONOR>
2

> <PUBCHEM_CACTVS_ROTATABLE_BOND>
3

> <PUBCHEM_CACTVS_SUBSKEYS>
AAADccBzMABAAAAAAAAAAAAAAAAAAWAAAAAwAAAAAAAAAAABwAAAHgQQQAAACAyB1gAz1ZJIFEKoAaRydHTCiDkrYiAImBm1ZImOICLEkbGNICBglAJYyCcQAAAAAAQAAAAAAAAACAAAAAAAAAAAAAAAAA==

> <PUBCHEM_IUPAC_OPENEYE_NAME>
4-amino-N-(4,5-dimethyloxazol-2-yl)benzenesulfonamide

> <PUBCHEM_IUPAC_CAS_NAME>
4-amino-N-(4,5-dimethyl-2-oxazolyl)benzenesulfonamide

> <PUBCHEM_IUPAC_NAME>
4-amino-N-(4,5-dimethyl-1,3-oxazol-2-yl)benzenesulfonamide

> <PUBCHEM_IUPAC_SYSTEMATIC_NAME>
4-azanyl-N-(4,5-dimethyl-1,3-oxazol-2-yl)benzenesulfonamide

> <PUBCHEM_IUPAC_TRADITIONAL_NAME>
4-amino-N-(4,5-dimethyloxazol-2-yl)benzenesulfonamide

> <PUBCHEM_IUPAC_INCHI>
InChI=1S/C11H13N3O3S/c1-7-8(2)17-11(13-7)14-18(15,16)10-5-3-9(12)4-6-10/h3-6H,12H2,1-2H3,(H,13,14)

> <PUBCHEM_IUPAC_INCHIKEY>
CYFLXLSBHQBMFT-UHFFFAOYSA-N

> <PUBCHEM_XLOGP3_AA>
1.3

> <PUBCHEM_EXACT_MASS>
267.067762

> <PUBCHEM_MOLECULAR_FORMULA>
C11H13N3O3S

> <PUBCHEM_MOLECULAR_WEIGHT>
267.30422

> <PUBCHEM_OPENEYE_CAN_SMILES>
CC1=C(OC(=N1)NS(=O)(=O)C2=CC=C(C=C2)N)C

> <PUBCHEM_OPENEYE_ISO_SMILES>
CC1=C(OC(=N1)NS(=O)(=O)C2=CC=C(C=C2)N)C

> <PUBCHEM_CACTVS_TPSA>
107

> <PUBCHEM_MONOISOTOPIC_WEIGHT>
267.067762

> <PUBCHEM_TOTAL_CHARGE>
0

> <PUBCHEM_HEAVY_ATOM_COUNT>
18

> <PUBCHEM_ATOM_DEF_STEREO_COUNT>
0

> <PUBCHEM_ATOM_UDEF_STEREO_COUNT>
0

> <PUBCHEM_BOND_DEF_STEREO_COUNT>
0

> <PUBCHEM_BOND_UDEF_STEREO_COUNT>
0

> <PUBCHEM_ISOTOPIC_ATOM_COUNT>
0

> <PUBCHEM_COMPONENT_COUNT>
1

> <PUBCHEM_CACTVS_TAUTO_COUNT>
2

> <PUBCHEM_COORDINATE_TYPE>
1
5
255

> <PUBCHEM_BONDANNOTATIONS>
10  11  8
12  14  8
13  15  8
14  16  8
15  16  8
2  10  8
2  9  8
6  11  8
6  9  8
8  12  8
8  13  8

$$$$

