17396507
  -OEChem-06241222572D

 41 43  0     0  0  0  0  0  0999 V2000
    2.0000    1.3364    0.0000 Cl  0  0  0  0  0  0  0  0  0  0  0  0
    3.7320    2.3364    0.0000 S   0  0  0  0  0  0  0  0  0  0  0  0
    4.7320    2.3364    0.0000 O   0  0  0  0  0  0  0  0  0  0  0  0
    2.7320    2.3364    0.0000 O   0  0  0  0  0  0  0  0  0  0  0  0
    6.3301   -0.1636    0.0000 O   0  0  0  0  0  0  0  0  0  0  0  0
    7.1391   -3.7514    0.0000 O   0  0  0  0  0  0  0  0  0  0  0  0
    3.7320    3.3364    0.0000 N   0  0  0  0  0  0  0  0  0  0  0  0
    5.4641   -1.6636    0.0000 N   0  0  0  0  0  0  0  0  0  0  0  0
    4.5981    3.8364    0.0000 C   0  0  0  0  0  0  0  0  0  0  0  0
    5.5981    3.8364    0.0000 C   0  0  0  0  0  0  0  0  0  0  0  0
    5.0981    4.7024    0.0000 C   0  0  0  0  0  0  0  0  0  0  0  0
    3.7320    1.3364    0.0000 C   0  0  0  0  0  0  0  0  0  0  0  0
    4.5981    0.8364    0.0000 C   0  0  0  0  0  0  0  0  0  0  0  0
    2.8660    0.8364    0.0000 C   0  0  0  0  0  0  0  0  0  0  0  0
    4.5981   -0.1636    0.0000 C   0  0  0  0  0  0  0  0  0  0  0  0
    2.8660   -0.1636    0.0000 C   0  0  0  0  0  0  0  0  0  0  0  0
    3.7320   -0.6636    0.0000 C   0  0  0  0  0  0  0  0  0  0  0  0
    5.4641   -0.6636    0.0000 C   0  0  0  0  0  0  0  0  0  0  0  0
    6.3301   -2.1636    0.0000 C   0  0  0  0  0  0  0  0  0  0  0  0
    6.3301   -3.1636    0.0000 C   0  0  0  0  0  0  0  0  0  0  0  0
    4.5981   -2.1636    0.0000 C   0  0  0  0  0  0  0  0  0  0  0  0
    5.5211   -3.7514    0.0000 C   0  0  0  0  0  0  0  0  0  0  0  0
    5.8301   -4.7024    0.0000 C   0  0  0  0  0  0  0  0  0  0  0  0
    6.8301   -4.7024    0.0000 C   0  0  0  0  0  0  0  0  0  0  0  0
    4.7585    3.2375    0.0000 H   0  0  0  0  0  0  0  0  0  0  0  0
    5.5730    5.1010    0.0000 H   0  0  0  0  0  0  0  0  0  0  0  0
    4.6231    5.1010    0.0000 H   0  0  0  0  0  0  0  0  0  0  0  0
    5.7057    3.2258    0.0000 H   0  0  0  0  0  0  0  0  0  0  0  0
    6.1807    4.0485    0.0000 H   0  0  0  0  0  0  0  0  0  0  0  0
    3.1951    3.6464    0.0000 H   0  0  0  0  0  0  0  0  0  0  0  0
    5.1350    1.1464    0.0000 H   0  0  0  0  0  0  0  0  0  0  0  0
    2.3291   -0.4736    0.0000 H   0  0  0  0  0  0  0  0  0  0  0  0
    3.7320   -1.2836    0.0000 H   0  0  0  0  0  0  0  0  0  0  0  0
    6.9407   -2.2713    0.0000 H   0  0  0  0  0  0  0  0  0  0  0  0
    6.5422   -1.5810    0.0000 H   0  0  0  0  0  0  0  0  0  0  0  0
    4.2881   -1.6267    0.0000 H   0  0  0  0  0  0  0  0  0  0  0  0
    4.0611   -2.4736    0.0000 H   0  0  0  0  0  0  0  0  0  0  0  0
    4.9081   -2.7005    0.0000 H   0  0  0  0  0  0  0  0  0  0  0  0
    4.9315   -3.5598    0.0000 H   0  0  0  0  0  0  0  0  0  0  0  0
    5.4657   -5.2040    0.0000 H   0  0  0  0  0  0  0  0  0  0  0  0
    7.1946   -5.2040    0.0000 H   0  0  0  0  0  0  0  0  0  0  0  0
  1 14  1  0  0  0  0
  2  3  2  0  0  0  0
  2  4  2  0  0  0  0
  2  7  1  0  0  0  0
  2 12  1  0  0  0  0
  5 18  2  0  0  0  0
  6 20  1  0  0  0  0
  6 24  1  0  0  0  0
  7  9  1  0  0  0  0
  7 30  1  0  0  0  0
  8 18  1  0  0  0  0
  8 19  1  0  0  0  0
  8 21  1  0  0  0  0
  9 10  1  0  0  0  0
  9 11  1  0  0  0  0
  9 25  1  0  0  0  0
 10 11  1  0  0  0  0
 10 28  1  0  0  0  0
 10 29  1  0  0  0  0
 11 26  1  0  0  0  0
 11 27  1  0  0  0  0
 12 13  1  0  0  0  0
 12 14  2  0  0  0  0
 13 15  2  0  0  0  0
 13 31  1  0  0  0  0
 14 16  1  0  0  0  0
 15 17  1  0  0  0  0
 15 18  1  0  0  0  0
 16 17  2  0  0  0  0
 16 32  1  0  0  0  0
 17 33  1  0  0  0  0
 19 20  1  0  0  0  0
 19 34  1  0  0  0  0
 19 35  1  0  0  0  0
 20 22  2  0  0  0  0
 21 36  1  0  0  0  0
 21 37  1  0  0  0  0
 21 38  1  0  0  0  0
 22 23  1  0  0  0  0
 22 39  1  0  0  0  0
 23 24  2  0  0  0  0
 23 40  1  0  0  0  0
 24 41  1  0  0  0  0
M  END
> <PUBCHEM_COMPOUND_CID>
17396507

> <PUBCHEM_COMPOUND_CANONICALIZED>
1

> <PUBCHEM_CACTVS_COMPLEXITY>
561

> <PUBCHEM_CACTVS_HBOND_ACCEPTOR>
5

> <PUBCHEM_CACTVS_HBOND_DONOR>
1

> <PUBCHEM_CACTVS_ROTATABLE_BOND>
6

> <PUBCHEM_CACTVS_SUBSKEYS>
AAADceB7OABEAAAAAAAAAAAAGAAAASAAAAAwAAAAAAAAAAABwAAAHgYQQAAADC7h2CYyBYNABEKIAqlSkHDCCBAkJQAIiJmODsgOJjKFtzuHOSjk1hGYqYeYmQKOBAAAgAAAAIAIAAEAAAABAAAAAAAAAA==

> <PUBCHEM_IUPAC_OPENEYE_NAME>
4-chloro-3-(cyclopropylsulfamoyl)-N-(2-furylmethyl)-N-methyl-benzamide

> <PUBCHEM_IUPAC_CAS_NAME>
4-chloro-3-(cyclopropylsulfamoyl)-N-(2-furanylmethyl)-N-methylbenzamide

> <PUBCHEM_IUPAC_NAME>
4-chloro-3-(cyclopropylsulfamoyl)-N-(furan-2-ylmethyl)-N-methylbenzamide

> <PUBCHEM_IUPAC_SYSTEMATIC_NAME>
4-chloranyl-3-(cyclopropylsulfamoyl)-N-(furan-2-ylmethyl)-N-methyl-benzamide

> <PUBCHEM_IUPAC_TRADITIONAL_NAME>
4-chloro-3-(cyclopropylsulfamoyl)-N-(2-furfuryl)-N-methyl-benzamide

> <PUBCHEM_IUPAC_INCHI>
InChI=1S/C16H17ClN2O4S/c1-19(10-13-3-2-8-23-13)16(20)11-4-7-14(17)15(9-11)24(21,22)18-12-5-6-12/h2-4,7-9,12,18H,5-6,10H2,1H3

> <PUBCHEM_IUPAC_INCHIKEY>
BGECAKROONQLAB-UHFFFAOYSA-N

> <PUBCHEM_XLOGP3_AA>
2.1

> <PUBCHEM_EXACT_MASS>
368.059756

> <PUBCHEM_MOLECULAR_FORMULA>
C16H17ClN2O4S

> <PUBCHEM_MOLECULAR_WEIGHT>
368.83518

> <PUBCHEM_OPENEYE_CAN_SMILES>
CN(CC1=CC=CO1)C(=O)C2=CC(=C(C=C2)Cl)S(=O)(=O)NC3CC3

> <PUBCHEM_OPENEYE_ISO_SMILES>
CN(CC1=CC=CO1)C(=O)C2=CC(=C(C=C2)Cl)S(=O)(=O)NC3CC3

> <PUBCHEM_CACTVS_TPSA>
88

> <PUBCHEM_MONOISOTOPIC_WEIGHT>
368.059756

> <PUBCHEM_TOTAL_CHARGE>
0

> <PUBCHEM_HEAVY_ATOM_COUNT>
24

> <PUBCHEM_ATOM_DEF_STEREO_COUNT>
0

> <PUBCHEM_ATOM_UDEF_STEREO_COUNT>
0

> <PUBCHEM_BOND_DEF_STEREO_COUNT>
0

> <PUBCHEM_BOND_UDEF_STEREO_COUNT>
0

> <PUBCHEM_ISOTOPIC_ATOM_COUNT>
0

> <PUBCHEM_COMPONENT_COUNT>
1

> <PUBCHEM_CACTVS_TAUTO_COUNT>
1

> <PUBCHEM_COORDINATE_TYPE>
1
5
255

> <PUBCHEM_BONDANNOTATIONS>
12  13  8
12  14  8
13  15  8
14  16  8
15  17  8
16  17  8
20  22  8
22  23  8
23  24  8
6  20  8
6  24  8

$$$$

