3627
  -OEChem-06251223332D

 45 47  0     1  0  0  0  0  0999 V2000
    8.0622   -3.0458    0.0000 Cl  0  0  0  0  0  0  0  0  0  0  0  0
    4.5981   -0.0458    0.0000 N   0  0  3  0  0  0  0  0  0  0  0  0
    4.0981    2.1448    0.0000 N   0  0  3  0  0  0  0  0  0  0  0  0
    5.4990    0.3881    0.0000 C   0  0  0  0  0  0  0  0  0  0  0  0
    4.5981   -1.0458    0.0000 C   0  0  3  0  0  0  0  0  0  0  0  0
    3.6971    0.3881    0.0000 C   0  0  0  0  0  0  0  0  0  0  0  0
    5.7216    1.3630    0.0000 C   0  0  0  0  0  0  0  0  0  0  0  0
    3.4746    1.3630    0.0000 C   0  0  0  0  0  0  0  0  0  0  0  0
    5.0981    2.1448    0.0000 C   0  0  0  0  0  0  0  0  0  0  0  0
    5.4641   -1.5458    0.0000 C   0  0  0  0  0  0  0  0  0  0  0  0
    3.7320   -1.5458    0.0000 C   0  0  0  0  0  0  0  0  0  0  0  0
    3.6642    3.0458    0.0000 C   0  0  0  0  0  0  0  0  0  0  0  0
    5.4641   -2.5458    0.0000 C   0  0  0  0  0  0  0  0  0  0  0  0
    6.3301   -1.0458    0.0000 C   0  0  0  0  0  0  0  0  0  0  0  0
    2.8660   -1.0458    0.0000 C   0  0  0  0  0  0  0  0  0  0  0  0
    3.7320   -2.5458    0.0000 C   0  0  0  0  0  0  0  0  0  0  0  0
    6.3301   -3.0458    0.0000 C   0  0  0  0  0  0  0  0  0  0  0  0
    7.1962   -1.5458    0.0000 C   0  0  0  0  0  0  0  0  0  0  0  0
    2.0000   -1.5458    0.0000 C   0  0  0  0  0  0  0  0  0  0  0  0
    2.8660   -3.0458    0.0000 C   0  0  0  0  0  0  0  0  0  0  0  0
    7.1962   -2.5458    0.0000 C   0  0  0  0  0  0  0  0  0  0  0  0
    2.0000   -2.5458    0.0000 C   0  0  0  0  0  0  0  0  0  0  0  0
    5.6370   -0.2164    0.0000 H   0  0  0  0  0  0  0  0  0  0  0  0
    6.1190    0.3881    0.0000 H   0  0  0  0  0  0  0  0  0  0  0  0
    4.5981   -1.6658    0.0000 H   0  0  0  0  0  0  0  0  0  0  0  0
    3.0771    0.3881    0.0000 H   0  0  0  0  0  0  0  0  0  0  0  0
    3.5591   -0.2164    0.0000 H   0  0  0  0  0  0  0  0  0  0  0  0
    6.2802    1.0940    0.0000 H   0  0  0  0  0  0  0  0  0  0  0  0
    6.1081    1.8477    0.0000 H   0  0  0  0  0  0  0  0  0  0  0  0
    3.0880    1.8477    0.0000 H   0  0  0  0  0  0  0  0  0  0  0  0
    2.9160    1.0940    0.0000 H   0  0  0  0  0  0  0  0  0  0  0  0
    5.6567    2.4138    0.0000 H   0  0  0  0  0  0  0  0  0  0  0  0
    4.9601    2.7493    0.0000 H   0  0  0  0  0  0  0  0  0  0  0  0
    4.2228    3.3148    0.0000 H   0  0  0  0  0  0  0  0  0  0  0  0
    3.3952    3.6044    0.0000 H   0  0  0  0  0  0  0  0  0  0  0  0
    3.1056    2.7768    0.0000 H   0  0  0  0  0  0  0  0  0  0  0  0
    4.9272   -2.8558    0.0000 H   0  0  0  0  0  0  0  0  0  0  0  0
    6.3301   -0.4258    0.0000 H   0  0  0  0  0  0  0  0  0  0  0  0
    2.8660   -0.4258    0.0000 H   0  0  0  0  0  0  0  0  0  0  0  0
    4.2690   -2.8558    0.0000 H   0  0  0  0  0  0  0  0  0  0  0  0
    6.3301   -3.6658    0.0000 H   0  0  0  0  0  0  0  0  0  0  0  0
    7.7331   -1.2358    0.0000 H   0  0  0  0  0  0  0  0  0  0  0  0
    1.4631   -1.2358    0.0000 H   0  0  0  0  0  0  0  0  0  0  0  0
    2.8660   -3.6658    0.0000 H   0  0  0  0  0  0  0  0  0  0  0  0
    1.4631   -2.8558    0.0000 H   0  0  0  0  0  0  0  0  0  0  0  0
  1 21  1  0  0  0  0
  2  4  1  0  0  0  0
  2  5  1  0  0  0  0
  2  6  1  0  0  0  0
  3  8  1  0  0  0  0
  3  9  1  0  0  0  0
  3 12  1  0  0  0  0
  4  7  1  0  0  0  0
  4 23  1  0  0  0  0
  4 24  1  0  0  0  0
  5 10  1  0  0  0  0
  5 11  1  0  0  0  0
  5 25  1  0  0  0  0
  6  8  1  0  0  0  0
  6 26  1  0  0  0  0
  6 27  1  0  0  0  0
  7  9  1  0  0  0  0
  7 28  1  0  0  0  0
  7 29  1  0  0  0  0
  8 30  1  0  0  0  0
  8 31  1  0  0  0  0
  9 32  1  0  0  0  0
  9 33  1  0  0  0  0
 10 13  2  0  0  0  0
 10 14  1  0  0  0  0
 11 15  2  0  0  0  0
 11 16  1  0  0  0  0
 12 34  1  0  0  0  0
 12 35  1  0  0  0  0
 12 36  1  0  0  0  0
 13 17  1  0  0  0  0
 13 37  1  0  0  0  0
 14 18  2  0  0  0  0
 14 38  1  0  0  0  0
 15 19  1  0  0  0  0
 15 39  1  0  0  0  0
 16 20  2  0  0  0  0
 16 40  1  0  0  0  0
 17 21  2  0  0  0  0
 17 41  1  0  0  0  0
 18 21  1  0  0  0  0
 18 42  1  0  0  0  0
 19 22  2  0  0  0  0
 19 43  1  0  0  0  0
 20 22  1  0  0  0  0
 20 44  1  0  0  0  0
 22 45  1  0  0  0  0
M  END
> <PUBCHEM_COMPOUND_CID>
3627

> <PUBCHEM_COMPOUND_CANONICALIZED>
1

> <PUBCHEM_CACTVS_COMPLEXITY>
321

> <PUBCHEM_CACTVS_HBOND_ACCEPTOR>
2

> <PUBCHEM_CACTVS_HBOND_DONOR>
0

> <PUBCHEM_CACTVS_ROTATABLE_BOND>
3

> <PUBCHEM_CACTVS_SUBSKEYS>
AAADceB7AAAEAAAAAAAAAAAAAAAAAAAAAAAwYAAABYAAAAABQAAAHAIAAAAADCrBGCQyAIMAAACAAiBCAACCAAAgBQAIiAAIBogIYCKB0xGUIAhggACIiAcQgMAOBAAAAAAAAAAIAAAAAAAAAAAAAAAAAA==

> <PUBCHEM_IUPAC_OPENEYE_NAME>
1-[(4-chlorophenyl)-phenyl-methyl]-4-methyl-1,4-diazepane

> <PUBCHEM_IUPAC_CAS_NAME>
1-[(4-chlorophenyl)-phenylmethyl]-4-methyl-1,4-diazepane

> <PUBCHEM_IUPAC_NAME>
1-[(4-chlorophenyl)-phenylmethyl]-4-methyl-1,4-diazepane

> <PUBCHEM_IUPAC_SYSTEMATIC_NAME>
1-[(4-chlorophenyl)-phenyl-methyl]-4-methyl-1,4-diazepane

> <PUBCHEM_IUPAC_TRADITIONAL_NAME>
1-[(4-chlorophenyl)-phenyl-methyl]-4-methyl-1,4-diazepane

> <PUBCHEM_IUPAC_INCHI>
InChI=1S/C19H23ClN2/c1-21-12-5-13-22(15-14-21)19(16-6-3-2-4-7-16)17-8-10-18(20)11-9-17/h2-4,6-11,19H,5,12-15H2,1H3

> <PUBCHEM_IUPAC_INCHIKEY>
WEUCDJCFJHYFRL-UHFFFAOYSA-N

> <PUBCHEM_XLOGP3_AA>
4.2

> <PUBCHEM_EXACT_MASS>
314.154976

> <PUBCHEM_MOLECULAR_FORMULA>
C19H23ClN2

> <PUBCHEM_MOLECULAR_WEIGHT>
314.85232

> <PUBCHEM_OPENEYE_CAN_SMILES>
CN1CCCN(CC1)C(C2=CC=CC=C2)C3=CC=C(C=C3)Cl

> <PUBCHEM_OPENEYE_ISO_SMILES>
CN1CCCN(CC1)C(C2=CC=CC=C2)C3=CC=C(C=C3)Cl

> <PUBCHEM_CACTVS_TPSA>
6.5

> <PUBCHEM_MONOISOTOPIC_WEIGHT>
314.154976

> <PUBCHEM_TOTAL_CHARGE>
0

> <PUBCHEM_HEAVY_ATOM_COUNT>
22

> <PUBCHEM_ATOM_DEF_STEREO_COUNT>
0

> <PUBCHEM_ATOM_UDEF_STEREO_COUNT>
1

> <PUBCHEM_BOND_DEF_STEREO_COUNT>
0

> <PUBCHEM_BOND_UDEF_STEREO_COUNT>
0

> <PUBCHEM_ISOTOPIC_ATOM_COUNT>
0

> <PUBCHEM_COMPONENT_COUNT>
1

> <PUBCHEM_CACTVS_TAUTO_COUNT>
1

> <PUBCHEM_COORDINATE_TYPE>
1
5
255

> <PUBCHEM_BONDANNOTATIONS>
10  13  8
10  14  8
11  15  8
11  16  8
13  17  8
14  18  8
15  19  8
16  20  8
17  21  8
18  21  8
19  22  8
20  22  8
5  11  3

$$$$

