582964
  -OEChem-06241222443D

 30 30  0     0  0  0  0  0  0999 V2000
   -1.2077    0.3260   -1.8084 O   0  0  0  0  0  0  0  0  0  0  0  0
   -2.1068   -0.3346    0.3584 C   0  0  0  0  0  0  0  0  0  0  0  0
   -0.9867   -0.0895   -0.6714 C   0  0  0  0  0  0  0  0  0  0  0  0
   -1.5954   -0.8345    1.7177 C   0  0  0  0  0  0  0  0  0  0  0  0
   -3.0410   -1.4147   -0.2219 C   0  0  0  0  0  0  0  0  0  0  0  0
   -2.9039    0.9634    0.5423 C   0  0  0  0  0  0  0  0  0  0  0  0
    0.4236   -0.3331   -0.3165 C   0  0  0  0  0  0  0  0  0  0  0  0
    1.2092    0.6696    0.2306 C   0  0  0  0  0  0  0  0  0  0  0  0
    0.9370   -1.6006   -0.5497 C   0  0  0  0  0  0  0  0  0  0  0  0
    2.5393    0.3995    0.5523 C   0  0  0  0  0  0  0  0  0  0  0  0
    2.2671   -1.8708   -0.2279 C   0  0  0  0  0  0  0  0  0  0  0  0
    3.0683   -0.8707    0.3231 C   0  0  0  0  0  0  0  0  0  0  0  0
    0.6899    2.0079    0.4838 C   0  0  0  0  0  0  0  0  0  0  0  0
    0.7071    2.9824   -0.4125 C   0  0  0  0  0  0  0  0  0  0  0  0
   -1.0482   -1.7790    1.6268 H   0  0  0  0  0  0  0  0  0  0  0  0
   -2.4291   -1.0088    2.4082 H   0  0  0  0  0  0  0  0  0  0  0  0
   -0.9319   -0.1052    2.1939 H   0  0  0  0  0  0  0  0  0  0  0  0
   -3.4641   -1.1021   -1.1836 H   0  0  0  0  0  0  0  0  0  0  0  0
   -3.8751   -1.6279    0.4560 H   0  0  0  0  0  0  0  0  0  0  0  0
   -2.4986   -2.3512   -0.3965 H   0  0  0  0  0  0  0  0  0  0  0  0
   -3.2994    1.3316   -0.4112 H   0  0  0  0  0  0  0  0  0  0  0  0
   -3.7519    0.8165    1.2205 H   0  0  0  0  0  0  0  0  0  0  0  0
   -2.2765    1.7571    0.9609 H   0  0  0  0  0  0  0  0  0  0  0  0
    0.3209   -2.3863   -0.9784 H   0  0  0  0  0  0  0  0  0  0  0  0
    3.1784    1.1666    0.9835 H   0  0  0  0  0  0  0  0  0  0  0  0
    2.6789   -2.8599   -0.4061 H   0  0  0  0  0  0  0  0  0  0  0  0
    4.1038   -1.0813    0.5738 H   0  0  0  0  0  0  0  0  0  0  0  0
    0.2835    2.1864    1.4748 H   0  0  0  0  0  0  0  0  0  0  0  0
    0.3103    3.9616   -0.1665 H   0  0  0  0  0  0  0  0  0  0  0  0
    1.1103    2.8397   -1.4098 H   0  0  0  0  0  0  0  0  0  0  0  0
  1  3  2  0  0  0  0
  2  3  1  0  0  0  0
  2  4  1  0  0  0  0
  2  5  1  0  0  0  0
  2  6  1  0  0  0  0
  3  7  1  0  0  0  0
  4 15  1  0  0  0  0
  4 16  1  0  0  0  0
  4 17  1  0  0  0  0
  5 18  1  0  0  0  0
  5 19  1  0  0  0  0
  5 20  1  0  0  0  0
  6 21  1  0  0  0  0
  6 22  1  0  0  0  0
  6 23  1  0  0  0  0
  7  8  1  0  0  0  0
  7  9  2  0  0  0  0
  8 10  2  0  0  0  0
  8 13  1  0  0  0  0
  9 11  1  0  0  0  0
  9 24  1  0  0  0  0
 10 12  1  0  0  0  0
 10 25  1  0  0  0  0
 11 12  2  0  0  0  0
 11 26  1  0  0  0  0
 12 27  1  0  0  0  0
 13 14  2  0  0  0  0
 13 28  1  0  0  0  0
 14 29  1  0  0  0  0
 14 30  1  0  0  0  0
M  END
> <PUBCHEM_COMPOUND_CID>
582964

> <PUBCHEM_CONFORMER_RMSD>
0.6

> <PUBCHEM_CONFORMER_DIVERSEORDER>
1
4
5
2
3

> <PUBCHEM_MMFF94_PARTIAL_CHARGES>
18
1 -0.57
10 -0.15
11 -0.15
12 -0.15
13 -0.18
14 -0.3
2 0.06
24 0.15
25 0.15
26 0.15
27 0.15
28 0.15
29 0.15
3 0.42
30 0.15
7 0.09
8 0.03
9 -0.15

> <PUBCHEM_EFFECTIVE_ROTOR_COUNT>
3

> <PUBCHEM_PHARMACOPHORE_FEATURES>
4
1 1 acceptor
1 14 hydrophobe
4 2 4 5 6 hydrophobe
6 7 8 9 10 11 12 rings

> <PUBCHEM_HEAVY_ATOM_COUNT>
14

> <PUBCHEM_ATOM_DEF_STEREO_COUNT>
0

> <PUBCHEM_ATOM_UDEF_STEREO_COUNT>
0

> <PUBCHEM_BOND_DEF_STEREO_COUNT>
0

> <PUBCHEM_BOND_UDEF_STEREO_COUNT>
0

> <PUBCHEM_ISOTOPIC_ATOM_COUNT>
0

> <PUBCHEM_COMPONENT_COUNT>
1

> <PUBCHEM_CACTVS_TAUTO_COUNT>
1

> <PUBCHEM_CONFORMER_ID>
0008E53400000001

> <PUBCHEM_MMFF94_ENERGY>
49.7662

> <PUBCHEM_FEATURE_SELFOVERLAP>
20.297

> <PUBCHEM_SHAPE_FINGERPRINT>
11471102 22 18409443661634236714
12251169 10 18335414652096097123
12382932 28 18335703896304707938
12423570 1 6513018420968145902
12696612 119 18335697208945454981
13898156 1 16878512206728505661
14648413 74 18270397192119002833
14817 1 15910548319126773209
15375462 478 17821730541791891153
15775835 57 17386001698539009625
16945 1 18195517108582187467
17841504 4 18339922623620256481
17990270 104 18412543176154022058
20201158 50 18343585165535243586
20379382 53 18270105808499635997
20559304 39 18261669255858676113
21061003 4 18410853274285239850
21130352 189 18338232790365741689
21501502 16 18340762646488536625
21524375 3 17466497911097439208
22344851 262 18113905995739422637
2748010 2 18335711584543866750
430814 3 17690842255112694772
5084963 1 17677602069260862987
528862 383 18194968430963372240
528886 8 18261402194786994570
7364860 26 18265329504218740656
77492 1 17240771657138362615
81228 2 17980469384836092920

> <PUBCHEM_SHAPE_MULTIPOLES>
282.24
4.34
2.38
1.16
0.89
1.55
-0.01
-1.54
-0.71
-0.9
0.23
0.52
-0.07
0.11

> <PUBCHEM_SHAPE_SELFOVERLAP>
584.402

> <PUBCHEM_SHAPE_VOLUME>
163.4

> <PUBCHEM_COORDINATE_TYPE>
2
5
10

$$$$

