7969
  -OEChem-06261202303D

 13 13  0     0  0  0  0  0  0999 V2000
   -2.7234    0.0000    0.0003 S   0  0  0  0  0  0  0  0  0  0  0  0
   -0.9410   -0.0001   -0.0002 C   0  0  0  0  0  0  0  0  0  0  0  0
   -0.2437    1.2079   -0.0002 C   0  0  0  0  0  0  0  0  0  0  0  0
   -0.2435   -1.2080   -0.0002 C   0  0  0  0  0  0  0  0  0  0  0  0
    1.1512    1.2080    0.0000 C   0  0  0  0  0  0  0  0  0  0  0  0
    1.1514   -1.2079    0.0000 C   0  0  0  0  0  0  0  0  0  0  0  0
    1.8488    0.0001    0.0002 C   0  0  0  0  0  0  0  0  0  0  0  0
   -0.7657    2.1615   -0.0002 H   0  0  0  0  0  0  0  0  0  0  0  0
   -0.7694   -2.1596   -0.0002 H   0  0  0  0  0  0  0  0  0  0  0  0
    1.6945    2.1485    0.0002 H   0  0  0  0  0  0  0  0  0  0  0  0
    1.6947   -2.1484    0.0001 H   0  0  0  0  0  0  0  0  0  0  0  0
    2.9349    0.0002    0.0004 H   0  0  0  0  0  0  0  0  0  0  0  0
   -2.8974    1.3300   -0.0056 H   0  0  0  0  0  0  0  0  0  0  0  0
  1  2  1  0  0  0  0
  1 13  1  0  0  0  0
  2  3  2  0  0  0  0
  2  4  1  0  0  0  0
  3  5  1  0  0  0  0
  3  8  1  0  0  0  0
  4  6  2  0  0  0  0
  4  9  1  0  0  0  0
  5  7  2  0  0  0  0
  5 10  1  0  0  0  0
  6  7  1  0  0  0  0
  6 11  1  0  0  0  0
  7 12  1  0  0  0  0
M  END
> <PUBCHEM_COMPOUND_CID>
7969

> <PUBCHEM_CONFORMER_RMSD>
0.4

> <PUBCHEM_CONFORMER_DIVERSEORDER>
1

> <PUBCHEM_MMFF94_PARTIAL_CHARGES>
13
1 -0.28
10 0.15
11 0.15
12 0.15
13 0.18
2 0.1
3 -0.15
4 -0.15
5 -0.15
6 -0.15
7 -0.15
8 0.15
9 0.15

> <PUBCHEM_EFFECTIVE_ROTOR_COUNT>
0

> <PUBCHEM_PHARMACOPHORE_FEATURES>
1
6 2 3 4 5 6 7 rings

> <PUBCHEM_HEAVY_ATOM_COUNT>
7

> <PUBCHEM_ATOM_DEF_STEREO_COUNT>
0

> <PUBCHEM_ATOM_UDEF_STEREO_COUNT>
0

> <PUBCHEM_BOND_DEF_STEREO_COUNT>
0

> <PUBCHEM_BOND_UDEF_STEREO_COUNT>
0

> <PUBCHEM_ISOTOPIC_ATOM_COUNT>
0

> <PUBCHEM_COMPONENT_COUNT>
1

> <PUBCHEM_CACTVS_TAUTO_COUNT>
2

> <PUBCHEM_CONFORMER_ID>
00001F2100000001

> <PUBCHEM_MMFF94_ENERGY>
15.0822

> <PUBCHEM_FEATURE_SELFOVERLAP>
5.074

> <PUBCHEM_SHAPE_FINGERPRINT>
18185500 45 18335707156211148735
20096714 4 18337953372456475402
21040471 1 18194402186638036068
23552423 10 17911508015510456926
29004967 10 18342735234599079673

> <PUBCHEM_SHAPE_MULTIPOLES>
147.91
2.83
1.44
0.63
1.78
0
0
0
0
-0.39
0
0.03
0
0

> <PUBCHEM_SHAPE_SELFOVERLAP>
292.775

> <PUBCHEM_SHAPE_VOLUME>
89.4

> <PUBCHEM_COORDINATE_TYPE>
2
5
10

$$$$

