10643
  -OEChem-06261204473D

 47 49  0     0  0  0  0  0  0999 V2000
   -0.1212    0.5072   -0.0027 O   0  0  0  0  0  0  0  0  0  0  0  0
    1.6503    2.5265   -0.3571 O   0  0  0  0  0  0  0  0  0  0  0  0
   -1.6058   -2.8416    0.5541 O   0  0  0  0  0  0  0  0  0  0  0  0
    4.3603    2.0296   -0.3925 O   0  0  0  0  0  0  0  0  0  0  0  0
    5.2960   -0.5540   -0.0612 O   0  0  0  0  0  0  0  0  0  0  0  0
    1.0867   -3.3493    0.5042 O   0  0  0  0  0  0  0  0  0  0  0  0
   -6.3492    1.3235    0.0694 O   0  0  0  0  0  0  0  0  0  0  0  0
    1.6895   -1.0987    0.1558 C   0  0  0  0  0  0  0  0  0  0  0  0
    1.2140    0.1993   -0.0099 C   0  0  0  0  0  0  0  0  0  0  0  0
   -1.0369   -0.5186    0.1694 C   0  0  0  0  0  0  0  0  0  0  0  0
    2.1097    1.2531   -0.1935 C   0  0  0  0  0  0  0  0  0  0  0  0
    0.7235   -2.1905    0.3501 C   0  0  0  0  0  0  0  0  0  0  0  0
   -0.7113   -1.8142    0.3513 C   0  0  0  0  0  0  0  0  0  0  0  0
    3.0631   -1.3541    0.1388 C   0  0  0  0  0  0  0  0  0  0  0  0
    3.4819    1.0024   -0.2112 C   0  0  0  0  0  0  0  0  0  0  0  0
    3.9575   -0.2989   -0.0455 C   0  0  0  0  0  0  0  0  0  0  0  0
   -2.4266   -0.0361    0.1434 C   0  0  0  0  0  0  0  0  0  0  0  0
   -3.0479    0.3707    1.3251 C   0  0  0  0  0  0  0  0  0  0  0  0
   -3.1262    0.0150   -1.0633 C   0  0  0  0  0  0  0  0  0  0  0  0
   -4.3657    0.8276    1.3001 C   0  0  0  0  0  0  0  0  0  0  0  0
   -4.4438    0.4719   -1.0882 C   0  0  0  0  0  0  0  0  0  0  0  0
   -5.0636    0.8781    0.0935 C   0  0  0  0  0  0  0  0  0  0  0  0
    1.4800    3.3092    0.8222 C   0  0  0  0  0  0  0  0  0  0  0  0
   -1.9995   -3.4175   -0.6770 C   0  0  0  0  0  0  0  0  0  0  0  0
    5.3059    2.2631    0.6485 C   0  0  0  0  0  0  0  0  0  0  0  0
    5.8836   -0.8530   -1.3257 C   0  0  0  0  0  0  0  0  0  0  0  0
   -7.0042    1.3493   -1.1980 C   0  0  0  0  0  0  0  0  0  0  0  0
    3.4456   -2.3631    0.2682 H   0  0  0  0  0  0  0  0  0  0  0  0
   -2.5168    0.3376    2.2733 H   0  0  0  0  0  0  0  0  0  0  0  0
   -2.6544   -0.2921   -1.9938 H   0  0  0  0  0  0  0  0  0  0  0  0
   -4.8432    1.1429    2.2237 H   0  0  0  0  0  0  0  0  0  0  0  0
   -4.9266    0.4865   -2.0593 H   0  0  0  0  0  0  0  0  0  0  0  0
    2.4343    3.4380    1.3423 H   0  0  0  0  0  0  0  0  0  0  0  0
    0.7486    2.8448    1.4911 H   0  0  0  0  0  0  0  0  0  0  0  0
    1.1073    4.2942    0.5282 H   0  0  0  0  0  0  0  0  0  0  0  0
   -1.1389   -3.8124   -1.2283 H   0  0  0  0  0  0  0  0  0  0  0  0
   -2.6671   -4.2566   -0.4582 H   0  0  0  0  0  0  0  0  0  0  0  0
   -2.5502   -2.7121   -1.3044 H   0  0  0  0  0  0  0  0  0  0  0  0
    5.4786    3.3416    0.7101 H   0  0  0  0  0  0  0  0  0  0  0  0
    4.9430    1.9202    1.6238 H   0  0  0  0  0  0  0  0  0  0  0  0
    6.2575    1.7822    0.4056 H   0  0  0  0  0  0  0  0  0  0  0  0
    6.9542   -1.0165   -1.1758 H   0  0  0  0  0  0  0  0  0  0  0  0
    5.7513   -0.0174   -2.0204 H   0  0  0  0  0  0  0  0  0  0  0  0
    5.4456   -1.7639   -1.7457 H   0  0  0  0  0  0  0  0  0  0  0  0
   -7.1061    0.3432   -1.6188 H   0  0  0  0  0  0  0  0  0  0  0  0
   -6.5132    2.0412   -1.8906 H   0  0  0  0  0  0  0  0  0  0  0  0
   -8.0172    1.7298   -1.0306 H   0  0  0  0  0  0  0  0  0  0  0  0
  1  9  1  0  0  0  0
  1 10  1  0  0  0  0
  2 11  1  0  0  0  0
  2 23  1  0  0  0  0
  3 13  1  0  0  0  0
  3 24  1  0  0  0  0
  4 15  1  0  0  0  0
  4 25  1  0  0  0  0
  5 16  1  0  0  0  0
  5 26  1  0  0  0  0
  6 12  2  0  0  0  0
  7 22  1  0  0  0  0
  7 27  1  0  0  0  0
  8  9  1  0  0  0  0
  8 12  1  0  0  0  0
  8 14  2  0  0  0  0
  9 11  2  0  0  0  0
 10 13  2  0  0  0  0
 10 17  1  0  0  0  0
 11 15  1  0  0  0  0
 12 13  1  0  0  0  0
 14 16  1  0  0  0  0
 14 28  1  0  0  0  0
 15 16  2  0  0  0  0
 17 18  2  0  0  0  0
 17 19  1  0  0  0  0
 18 20  1  0  0  0  0
 18 29  1  0  0  0  0
 19 21  2  0  0  0  0
 19 30  1  0  0  0  0
 20 22  2  0  0  0  0
 20 31  1  0  0  0  0
 21 22  1  0  0  0  0
 21 32  1  0  0  0  0
 23 33  1  0  0  0  0
 23 34  1  0  0  0  0
 23 35  1  0  0  0  0
 24 36  1  0  0  0  0
 24 37  1  0  0  0  0
 24 38  1  0  0  0  0
 25 39  1  0  0  0  0
 25 40  1  0  0  0  0
 25 41  1  0  0  0  0
 26 42  1  0  0  0  0
 26 43  1  0  0  0  0
 26 44  1  0  0  0  0
 27 45  1  0  0  0  0
 27 46  1  0  0  0  0
 27 47  1  0  0  0  0
M  END
> <PUBCHEM_COMPOUND_CID>
10643

> <PUBCHEM_CONFORMER_RMSD>
0.8

> <PUBCHEM_CONFORMER_DIVERSEORDER>
1
2
4
3

> <PUBCHEM_MMFF94_PARTIAL_CHARGES>
32
1 -0.16
10 0.05
11 0.08
12 0.47
13 0.09
14 -0.15
15 0.08
16 0.08
17 0.03
18 -0.15
19 -0.15
2 -0.36
20 -0.15
21 -0.15
22 0.08
23 0.28
24 0.28
25 0.28
26 0.28
27 0.28
28 0.15
29 0.15
3 -0.36
30 0.15
31 0.15
32 0.15
4 -0.36
5 -0.36
6 -0.57
7 -0.36
8 0.09
9 0.08

> <PUBCHEM_EFFECTIVE_ROTOR_COUNT>
6

> <PUBCHEM_PHARMACOPHORE_FEATURES>
10
1 1 acceptor
1 2 acceptor
1 3 acceptor
1 4 acceptor
1 5 acceptor
1 6 acceptor
1 7 acceptor
6 1 8 9 10 12 13 rings
6 17 18 19 20 21 22 rings
6 8 9 11 14 15 16 rings

> <PUBCHEM_HEAVY_ATOM_COUNT>
27

> <PUBCHEM_ATOM_DEF_STEREO_COUNT>
0

> <PUBCHEM_ATOM_UDEF_STEREO_COUNT>
0

> <PUBCHEM_BOND_DEF_STEREO_COUNT>
0

> <PUBCHEM_BOND_UDEF_STEREO_COUNT>
0

> <PUBCHEM_ISOTOPIC_ATOM_COUNT>
0

> <PUBCHEM_COMPONENT_COUNT>
1

> <PUBCHEM_CACTVS_TAUTO_COUNT>
1

> <PUBCHEM_CONFORMER_ID>
0000299300000001

> <PUBCHEM_MMFF94_ENERGY>
128.1367

> <PUBCHEM_FEATURE_SELFOVERLAP>
50.794

> <PUBCHEM_SHAPE_FINGERPRINT>
10165383 225 18131064965412191767
10411042 1 17620197967287726210
10693767 8 18042969967976741982
1100329 8 18410854348275191786
11578080 2 17315087562371406794
12011746 2 18341608256507785156
12236239 1 17894914048996369765
12403259 415 18343012259852573619
12633257 1 18341621412446403802
12730499 353 18272085028815098467
12838862 33 18340502126947556456
13140716 1 18341049614612485170
13402501 40 18131073766217425733
13540713 4 18193262015483569602
13583140 156 17774997986281693659
14790565 3 18338508741883050224
15099037 51 18411978079060019446
15196674 1 18339077082536833946
18335252 114 18336838593080383853
18681886 176 17894642452212324811
21033648 144 18337400339735879212
21033648 29 17917441925241810661
21033650 10 16517341436086890360
21279426 13 18337100203574348230
21298829 104 18335420205542299145
21307412 95 17970040410242713902
221357 26 18338238270654555333
23227448 37 18338516339896104559
23558518 356 17697318417275652106
23559900 14 18261107436320339200
23569943 247 17608356167000987430
23576562 1 18200865163378431309
23845131 108 18202847656449391251
29717793 49 17603301583303583140
335352 9 18411697708285575462
34797466 226 14996291283685045137
34934 24 18411986823824216282
404807 14 15075331021699730006
474 4 18408885165867797811
484989 97 18337388220045187731
5104073 3 18269840826888198842
9709674 26 18049998901469046854
9981440 41 16957910007360802736

> <PUBCHEM_SHAPE_MULTIPOLES>
514.56
13.49
3.36
1.05
7.75
1.21
-0.05
-7.49
-3.5
-1.47
0.42
0.73
-0.11
0.54

> <PUBCHEM_SHAPE_SELFOVERLAP>
1117.762

> <PUBCHEM_SHAPE_VOLUME>
283

> <PUBCHEM_COORDINATE_TYPE>
2
5
10

$$$$

