11564
  -OEChem-06261205503D

 24 24  0     1  0  0  0  0  0999 V2000
    1.1756   -0.2462    0.2978 C   0  0  2  0  0  0  0  0  0  0  0  0
   -1.2447   -0.6657   -0.4427 C   0  0  2  0  0  0  0  0  0  0  0  0
    0.2340   -1.0477   -0.6141 C   0  0  0  0  0  0  0  0  0  0  0  0
    0.9582    1.2614    0.1174 C   0  0  0  0  0  0  0  0  0  0  0  0
   -1.4358    0.8514   -0.5784 C   0  0  0  0  0  0  0  0  0  0  0  0
   -0.5019    1.6545    0.3242 C   0  0  0  0  0  0  0  0  0  0  0  0
    2.6328   -0.6149    0.0205 C   0  0  0  0  0  0  0  0  0  0  0  0
   -1.8181   -1.1929    0.8754 C   0  0  0  0  0  0  0  0  0  0  0  0
    0.9633   -0.5054    1.3425 H   0  0  0  0  0  0  0  0  0  0  0  0
   -1.8111   -1.1486   -1.2499 H   0  0  0  0  0  0  0  0  0  0  0  0
    0.5166   -0.8755   -1.6615 H   0  0  0  0  0  0  0  0  0  0  0  0
    0.3641   -2.1220   -0.4328 H   0  0  0  0  0  0  0  0  0  0  0  0
    1.2725    1.5653   -0.8895 H   0  0  0  0  0  0  0  0  0  0  0  0
    1.5853    1.8169    0.8250 H   0  0  0  0  0  0  0  0  0  0  0  0
   -2.4764    1.1239   -0.3667 H   0  0  0  0  0  0  0  0  0  0  0  0
   -1.2460    1.1376   -1.6211 H   0  0  0  0  0  0  0  0  0  0  0  0
   -0.7776    1.5071    1.3748 H   0  0  0  0  0  0  0  0  0  0  0  0
   -0.6244    2.7236    0.1157 H   0  0  0  0  0  0  0  0  0  0  0  0
    3.3054   -0.0680    0.6897 H   0  0  0  0  0  0  0  0  0  0  0  0
    2.7991   -1.6854    0.1800 H   0  0  0  0  0  0  0  0  0  0  0  0
    2.9152   -0.3781   -1.0110 H   0  0  0  0  0  0  0  0  0  0  0  0
   -1.3210   -0.7636    1.7498 H   0  0  0  0  0  0  0  0  0  0  0  0
   -2.8856   -0.9591    0.9502 H   0  0  0  0  0  0  0  0  0  0  0  0
   -1.7132   -2.2817    0.9319 H   0  0  0  0  0  0  0  0  0  0  0  0
  1  3  1  0  0  0  0
  1  4  1  0  0  0  0
  1  7  1  0  0  0  0
  1  9  1  0  0  0  0
  2  3  1  0  0  0  0
  2  5  1  0  0  0  0
  2  8  1  0  0  0  0
  2 10  1  0  0  0  0
  3 11  1  0  0  0  0
  3 12  1  0  0  0  0
  4  6  1  0  0  0  0
  4 13  1  0  0  0  0
  4 14  1  0  0  0  0
  5  6  1  0  0  0  0
  5 15  1  0  0  0  0
  5 16  1  0  0  0  0
  6 17  1  0  0  0  0
  6 18  1  0  0  0  0
  7 19  1  0  0  0  0
  7 20  1  0  0  0  0
  7 21  1  0  0  0  0
  8 22  1  0  0  0  0
  8 23  1  0  0  0  0
  8 24  1  0  0  0  0
M  END
> <PUBCHEM_COMPOUND_CID>
11564

> <PUBCHEM_CONFORMER_RMSD>
0.4

> <PUBCHEM_CONFORMER_DIVERSEORDER>
1
2
4
3
5

> <PUBCHEM_MMFF94_PARTIAL_CHARGES>
0

> <PUBCHEM_EFFECTIVE_ROTOR_COUNT>
1.2

> <PUBCHEM_PHARMACOPHORE_FEATURES>
1
6 1 2 3 4 5 6 rings

> <PUBCHEM_HEAVY_ATOM_COUNT>
8

> <PUBCHEM_ATOM_DEF_STEREO_COUNT>
0

> <PUBCHEM_ATOM_UDEF_STEREO_COUNT>
2

> <PUBCHEM_BOND_DEF_STEREO_COUNT>
0

> <PUBCHEM_BOND_UDEF_STEREO_COUNT>
0

> <PUBCHEM_ISOTOPIC_ATOM_COUNT>
0

> <PUBCHEM_COMPONENT_COUNT>
1

> <PUBCHEM_CACTVS_TAUTO_COUNT>
1

> <PUBCHEM_CONFORMER_ID>
00002D2C00000001

> <PUBCHEM_MMFF94_ENERGY>
6.3759

> <PUBCHEM_FEATURE_SELFOVERLAP>
5.074

> <PUBCHEM_SHAPE_FINGERPRINT>
137420 1 12421573074181650643
16714656 1 18262804085128978244
18185500 45 17612602115638883022
21040471 1 17904202877345464660
23235685 24 18192438695052078285
23552423 10 18271803592340281462
24536 1 17915761793816510444
29004967 10 18269274551965276138

> <PUBCHEM_SHAPE_MULTIPOLES>
164.64
2.67
1.67
0.85
1.22
0.47
0.03
-0.79
0.22
-0.34
0.13
-0.25
-0.12
0.27

> <PUBCHEM_SHAPE_SELFOVERLAP>
312.414

> <PUBCHEM_SHAPE_VOLUME>
100.4

> <PUBCHEM_COORDINATE_TYPE>
2
5
10

$$$$

