854063
  -OEChem-06241222473D

 30 31  0     1  0  0  0  0  0999 V2000
    0.1132    2.9808    0.4740 S   0  0  0  0  0  0  0  0  0  0  0  0
    0.6140   -2.0708    0.3956 O   0  0  0  0  0  0  0  0  0  0  0  0
    1.9846    1.0922    0.6093 N   0  0  0  0  0  0  0  0  0  0  0  0
   -0.0497    0.1939    0.3101 N   0  0  0  0  0  0  0  0  0  0  0  0
    2.2426   -0.3174    0.6581 C   0  0  2  0  0  0  0  0  0  0  0  0
    3.1902   -0.7650   -0.4359 C   0  0  0  0  0  0  0  0  0  0  0  0
    0.8396   -0.8673    0.4549 C   0  0  0  0  0  0  0  0  0  0  0  0
    2.6886   -0.3204   -1.8126 C   0  0  0  0  0  0  0  0  0  0  0  0
    4.6036   -0.2286   -0.1915 C   0  0  0  0  0  0  0  0  0  0  0  0
    0.6384    1.3977    0.4273 C   0  0  0  0  0  0  0  0  0  0  0  0
   -1.4457    0.0039    0.0787 C   0  0  0  0  0  0  0  0  0  0  0  0
   -2.0901   -1.1275    0.5816 C   0  0  0  0  0  0  0  0  0  0  0  0
   -2.1685    0.9484   -0.6517 C   0  0  0  0  0  0  0  0  0  0  0  0
   -3.4537   -1.3136    0.3550 C   0  0  0  0  0  0  0  0  0  0  0  0
   -3.5322    0.7623   -0.8782 C   0  0  0  0  0  0  0  0  0  0  0  0
   -4.1749   -0.3687   -0.3748 C   0  0  0  0  0  0  0  0  0  0  0  0
    2.5938   -0.5768    1.6618 H   0  0  0  0  0  0  0  0  0  0  0  0
    3.2428   -1.8615   -0.4343 H   0  0  0  0  0  0  0  0  0  0  0  0
    2.6923    1.8014    0.7732 H   0  0  0  0  0  0  0  0  0  0  0  0
    2.6500    0.7696   -1.9111 H   0  0  0  0  0  0  0  0  0  0  0  0
    3.3659   -0.6878   -2.5924 H   0  0  0  0  0  0  0  0  0  0  0  0
    1.6973   -0.7242   -2.0404 H   0  0  0  0  0  0  0  0  0  0  0  0
    4.6404    0.8647   -0.2417 H   0  0  0  0  0  0  0  0  0  0  0  0
    5.2974   -0.6192   -0.9439 H   0  0  0  0  0  0  0  0  0  0  0  0
    4.9717   -0.5378    0.7924 H   0  0  0  0  0  0  0  0  0  0  0  0
   -1.5817   -1.8648    1.1940 H   0  0  0  0  0  0  0  0  0  0  0  0
   -1.7070    1.7955   -1.1434 H   0  0  0  0  0  0  0  0  0  0  0  0
   -3.9568   -2.1892    0.7550 H   0  0  0  0  0  0  0  0  0  0  0  0
   -4.0902    1.4872   -1.4640 H   0  0  0  0  0  0  0  0  0  0  0  0
   -5.2362   -0.5148   -0.5533 H   0  0  0  0  0  0  0  0  0  0  0  0
  1 10  2  0  0  0  0
  2  7  2  0  0  0  0
  3  5  1  0  0  0  0
  3 10  1  0  0  0  0
  3 19  1  0  0  0  0
  4  7  1  0  0  0  0
  4 10  1  0  0  0  0
  4 11  1  0  0  0  0
  5  6  1  0  0  0  0
  5  7  1  0  0  0  0
  5 17  1  0  0  0  0
  6  8  1  0  0  0  0
  6  9  1  0  0  0  0
  6 18  1  0  0  0  0
  8 20  1  0  0  0  0
  8 21  1  0  0  0  0
  8 22  1  0  0  0  0
  9 23  1  0  0  0  0
  9 24  1  0  0  0  0
  9 25  1  0  0  0  0
 11 12  2  0  0  0  0
 11 13  1  0  0  0  0
 12 14  1  0  0  0  0
 12 26  1  0  0  0  0
 13 15  2  0  0  0  0
 13 27  1  0  0  0  0
 14 16  2  0  0  0  0
 14 28  1  0  0  0  0
 15 16  1  0  0  0  0
 15 29  1  0  0  0  0
 16 30  1  0  0  0  0
M  END
> <PUBCHEM_COMPOUND_CID>
854063

> <PUBCHEM_CONFORMER_RMSD>
0.6

> <PUBCHEM_CONFORMER_DIVERSEORDER>
1
2
3
4

> <PUBCHEM_MMFF94_PARTIAL_CHARGES>
19
1 -0.38
10 0.5
11 0.12
12 -0.15
13 -0.15
14 -0.15
15 -0.15
16 -0.15
19 0.37
2 -0.57
26 0.15
27 0.15
28 0.15
29 0.15
3 -0.73
30 0.15
4 -0.24
5 0.36
7 0.57

> <PUBCHEM_EFFECTIVE_ROTOR_COUNT>
2.6

> <PUBCHEM_PHARMACOPHORE_FEATURES>
6
1 1 acceptor
1 2 acceptor
1 3 donor
3 6 8 9 hydrophobe
5 3 4 5 7 10 rings
6 11 12 13 14 15 16 rings

> <PUBCHEM_HEAVY_ATOM_COUNT>
16

> <PUBCHEM_ATOM_DEF_STEREO_COUNT>
1

> <PUBCHEM_ATOM_UDEF_STEREO_COUNT>
0

> <PUBCHEM_BOND_DEF_STEREO_COUNT>
0

> <PUBCHEM_BOND_UDEF_STEREO_COUNT>
0

> <PUBCHEM_ISOTOPIC_ATOM_COUNT>
0

> <PUBCHEM_COMPONENT_COUNT>
1

> <PUBCHEM_CACTVS_TAUTO_COUNT>
2

> <PUBCHEM_CONFORMER_ID>
000D082F00000001

> <PUBCHEM_MMFF94_ENERGY>
51.947

> <PUBCHEM_FEATURE_SELFOVERLAP>
30.446

> <PUBCHEM_SHAPE_FINGERPRINT>
10465860 250 18411989074128623096
10465860 71 18338220626902094428
10608611 8 18342188726171188673
11543360 7 16415473822830349283
12032990 46 18408039606554557731
13296908 3 18334017176874615281
14115302 16 18131063852978719030
14252887 29 17821443564993917670
14911166 2 18411986866494359823
15848700 24 18261119568685149980
16945 1 18339644563100497561
17041 50 18410016511555853257
17804303 29 18342457007071260291
18186145 218 18408889520901157139
200 152 17821736022502619567
20201158 50 18412269449678303339
20233049 118 18272937119887125322
20279233 1 18334577940478959182
20339313 130 18114177506181308985
20523700 14 18202567297635993783
20645476 183 17275385387019352227
20645477 70 18040725740215941405
20671657 53 18333166176180878185
20871999 31 18342455967235793037
21041028 32 18114452397263591417
21501502 16 17977386358479011178
21524375 3 17254286622081229416
22094290 60 17989487424603781829
221490 88 18195525887669628243
22926399 65 18201161056412823093
23402539 116 18408328795973040110
23557571 272 18188767370456790532
23559900 14 18410855478405393842
2748010 2 18126292939277522961
3060560 45 18260277351468708175
3071541 158 18342738468683547420
3312278 4 18340770445943405017
449060 23 17894343410381309350
474 4 15359699608161450938
6049 1 18128251199683147673
7364860 26 18117560617518698161
81228 2 18117831325123167824
8809292 202 18201438039228366739
9709674 26 18123475977702732643

> <PUBCHEM_SHAPE_MULTIPOLES>
317.29
7.16
2.08
1.05
0.04
1.49
0.38
-2.12
1.77
0.18
-0.49
-0.36
-0.02
0.61

> <PUBCHEM_SHAPE_SELFOVERLAP>
661.482

> <PUBCHEM_SHAPE_VOLUME>
183

> <PUBCHEM_COORDINATE_TYPE>
2
5
10

$$$$

