8586
  -OEChem-06261202562D

 50 50  0     1  0  0  0  0  0999 V2000
    5.3001    9.7400    0.0000 O   0  5  0  0  0  0  0  0  0  0  0  0
    0.9699   10.2400    0.0000 O   0  5  0  0  0  0  0  0  0  0  0  0
    4.4341   11.2400    0.0000 O   0  0  0  0  0  0  0  0  0  0  0  0
    1.8360    8.7400    0.0000 O   0  0  0  0  0  0  0  0  0  0  0  0
    2.2690    1.6200    0.0000 N   0  3  0  0  0  0  0  0  0  0  0  0
    4.8671    4.1200    0.0000 N   0  3  0  0  0  0  0  0  0  0  0  0
    3.1350    4.1200    0.0000 C   0  0  3  0  0  0  0  0  0  0  0  0
    3.1350    3.1200    0.0000 C   0  0  0  0  0  0  0  0  0  0  0  0
    2.2690    2.6200    0.0000 C   0  0  0  0  0  0  0  0  0  0  0  0
    4.0010    4.6200    0.0000 C   0  0  0  0  0  0  0  0  0  0  0  0
    2.2690    4.6200    0.0000 C   0  0  0  0  0  0  0  0  0  0  0  0
    2.2690    0.6200    0.0000 C   0  0  0  0  0  0  0  0  0  0  0  0
    1.2690    1.6200    0.0000 C   0  0  0  0  0  0  0  0  0  0  0  0
    4.0010    5.6200    0.0000 C   0  0  0  0  0  0  0  0  0  0  0  0
    1.4030    4.1200    0.0000 C   0  0  0  0  0  0  0  0  0  0  0  0
    2.2690    5.6200    0.0000 C   0  0  0  0  0  0  0  0  0  0  0  0
    5.7331    4.6200    0.0000 C   0  0  0  0  0  0  0  0  0  0  0  0
    4.8671    6.1200    0.0000 C   0  0  0  0  0  0  0  0  0  0  0  0
    0.5369    4.6200    0.0000 C   0  0  0  0  0  0  0  0  0  0  0  0
    1.4030    6.1200    0.0000 C   0  0  0  0  0  0  0  0  0  0  0  0
    5.7331    5.6200    0.0000 C   0  0  0  0  0  0  0  0  0  0  0  0
    0.5369    5.6200    0.0000 C   0  0  0  0  0  0  0  0  0  0  0  0
    3.5680    9.7400    0.0000 C   0  0  0  0  0  0  0  0  0  0  0  0
    2.7020   10.2400    0.0000 C   0  0  0  0  0  0  0  0  0  0  0  0
    4.4341   10.2400    0.0000 C   0  0  0  0  0  0  0  0  0  0  0  0
    1.8360    9.7400    0.0000 C   0  0  0  0  0  0  0  0  0  0  0  0
    3.6719    3.8100    0.0000 H   0  0  0  0  0  0  0  0  0  0  0  0
    3.7456    3.2277    0.0000 H   0  0  0  0  0  0  0  0  0  0  0  0
    3.3471    2.5374    0.0000 H   0  0  0  0  0  0  0  0  0  0  0  0
    1.6584    2.5123    0.0000 H   0  0  0  0  0  0  0  0  0  0  0  0
    2.0569    3.2026    0.0000 H   0  0  0  0  0  0  0  0  0  0  0  0
    2.8890    1.6200    0.0000 H   0  0  0  0  0  0  0  0  0  0  0  0
    1.6490    0.6200    0.0000 H   0  0  0  0  0  0  0  0  0  0  0  0
    2.8890    0.6200    0.0000 H   0  0  0  0  0  0  0  0  0  0  0  0
    2.2690    0.0000    0.0000 H   0  0  0  0  0  0  0  0  0  0  0  0
    1.2690    1.0000    0.0000 H   0  0  0  0  0  0  0  0  0  0  0  0
    0.6490    1.6200    0.0000 H   0  0  0  0  0  0  0  0  0  0  0  0
    1.2690    2.2400    0.0000 H   0  0  0  0  0  0  0  0  0  0  0  0
    4.8671    3.5000    0.0000 H   0  0  0  0  0  0  0  0  0  0  0  0
    3.4641    5.9300    0.0000 H   0  0  0  0  0  0  0  0  0  0  0  0
    1.4030    3.5000    0.0000 H   0  0  0  0  0  0  0  0  0  0  0  0
    2.8059    5.9300    0.0000 H   0  0  0  0  0  0  0  0  0  0  0  0
    6.2700    4.3100    0.0000 H   0  0  0  0  0  0  0  0  0  0  0  0
    4.8671    6.7400    0.0000 H   0  0  0  0  0  0  0  0  0  0  0  0
    0.0000    4.3100    0.0000 H   0  0  0  0  0  0  0  0  0  0  0  0
    1.4030    6.7400    0.0000 H   0  0  0  0  0  0  0  0  0  0  0  0
    6.2700    5.9300    0.0000 H   0  0  0  0  0  0  0  0  0  0  0  0
    0.0000    5.9300    0.0000 H   0  0  0  0  0  0  0  0  0  0  0  0
    3.5680    9.1200    0.0000 H   0  0  0  0  0  0  0  0  0  0  0  0
    2.7020   10.8600    0.0000 H   0  0  0  0  0  0  0  0  0  0  0  0
  1 25  1  0  0  0  0
  2 26  1  0  0  0  0
  3 25  2  0  0  0  0
  4 26  2  0  0  0  0
  5  9  1  0  0  0  0
  5 12  1  0  0  0  0
  5 13  1  0  0  0  0
  5 32  1  0  0  0  0
  6 10  1  0  0  0  0
  6 17  2  0  0  0  0
  6 39  1  0  0  0  0
  7  8  1  0  0  0  0
  7 10  1  0  0  0  0
  7 11  1  0  0  0  0
  7 27  1  0  0  0  0
  8  9  1  0  0  0  0
  8 28  1  0  0  0  0
  8 29  1  0  0  0  0
  9 30  1  0  0  0  0
  9 31  1  0  0  0  0
 10 14  2  0  0  0  0
 11 15  2  0  0  0  0
 11 16  1  0  0  0  0
 12 33  1  0  0  0  0
 12 34  1  0  0  0  0
 12 35  1  0  0  0  0
 13 36  1  0  0  0  0
 13 37  1  0  0  0  0
 13 38  1  0  0  0  0
 14 18  1  0  0  0  0
 14 40  1  0  0  0  0
 15 19  1  0  0  0  0
 15 41  1  0  0  0  0
 16 20  2  0  0  0  0
 16 42  1  0  0  0  0
 17 21  1  0  0  0  0
 17 43  1  0  0  0  0
 18 21  2  0  0  0  0
 18 44  1  0  0  0  0
 19 22  2  0  0  0  0
 19 45  1  0  0  0  0
 20 22  1  0  0  0  0
 20 46  1  0  0  0  0
 21 47  1  0  0  0  0
 22 48  1  0  0  0  0
 23 24  2  3  0  0  0
 23 25  1  0  0  0  0
 23 49  1  0  0  0  0
 24 26  1  0  0  0  0
 24 50  1  0  0  0  0
M  CHG  4   1  -1   2  -1   5   1   6   1
M  END
> <PUBCHEM_COMPOUND_CID>
8586

> <PUBCHEM_COMPOUND_CANONICALIZED>
1

> <PUBCHEM_CACTVS_COMPLEXITY>
329

> <PUBCHEM_CACTVS_HBOND_ACCEPTOR>
4

> <PUBCHEM_CACTVS_HBOND_DONOR>
2

> <PUBCHEM_CACTVS_ROTATABLE_BOND>
5

> <PUBCHEM_CACTVS_SUBSKEYS>
AAADceB7OAAAAAAAAAAAAAAAAAAAAAAAAAA8QAAAAAAAAAABwAAAHgAQAAAADQjBngQ+iJPJkACoAzT3TACCgCAxAiAI2aA4ZNgIJOLAkZGEMAhgkADIyYcQgMAOgAAAAAAAAAAAAAAAAAAAAAAAAAAAAA==

> <PUBCHEM_IUPAC_OPENEYE_NAME>
but-2-enedioate; dimethyl-(3-phenyl-3-pyridin-1-ium-2-yl-propyl)ammonium

> <PUBCHEM_IUPAC_CAS_NAME>
2-butenedioate; dimethyl-[3-phenyl-3-(2-pyridin-1-iumyl)propyl]ammonium

> <PUBCHEM_IUPAC_NAME>
but-2-enedioate; dimethyl-(3-phenyl-3-pyridin-1-ium-2-ylpropyl)azanium

> <PUBCHEM_IUPAC_SYSTEMATIC_NAME>
but-2-enedioate; dimethyl-(3-phenyl-3-pyridin-1-ium-2-yl-propyl)azanium

> <PUBCHEM_IUPAC_TRADITIONAL_NAME>
but-2-enedioate; dimethyl-(3-phenyl-3-pyridin-1-ium-2-yl-propyl)ammonium

> <PUBCHEM_IUPAC_INCHI>
InChI=1S/C16H20N2.C4H4O4/c1-18(2)13-11-15(14-8-4-3-5-9-14)16-10-6-7-12-17-16;5-3(6)1-2-4(7)8/h3-10,12,15H,11,13H2,1-2H3;1-2H,(H,5,6)(H,7,8)

> <PUBCHEM_IUPAC_INCHIKEY>
SSOXZAQUVINQSA-UHFFFAOYSA-N

> <PUBCHEM_EXACT_MASS>
356.173607

> <PUBCHEM_MOLECULAR_FORMULA>
C20H24N2O4

> <PUBCHEM_MOLECULAR_WEIGHT>
356.41556

> <PUBCHEM_OPENEYE_CAN_SMILES>
C[NH+](C)CCC(C1=CC=CC=C1)C2=CC=CC=[NH+]2.C(=CC(=O)[O-])C(=O)[O-]

> <PUBCHEM_OPENEYE_ISO_SMILES>
C[NH+](C)CCC(C1=CC=CC=C1)C2=CC=CC=[NH+]2.C(=CC(=O)[O-])C(=O)[O-]

> <PUBCHEM_CACTVS_TPSA>
98.8

> <PUBCHEM_MONOISOTOPIC_WEIGHT>
356.173607

> <PUBCHEM_TOTAL_CHARGE>
0

> <PUBCHEM_HEAVY_ATOM_COUNT>
26

> <PUBCHEM_ATOM_DEF_STEREO_COUNT>
0

> <PUBCHEM_ATOM_UDEF_STEREO_COUNT>
0

> <PUBCHEM_BOND_DEF_STEREO_COUNT>
0

> <PUBCHEM_BOND_UDEF_STEREO_COUNT>
1

> <PUBCHEM_ISOTOPIC_ATOM_COUNT>
0

> <PUBCHEM_COMPONENT_COUNT>
2

> <PUBCHEM_CACTVS_TAUTO_COUNT>
2

> <PUBCHEM_COORDINATE_TYPE>
1
5
255

> <PUBCHEM_BONDANNOTATIONS>
10  14  8
11  15  8
11  16  8
14  18  8
15  19  8
16  20  8
17  21  8
18  21  8
19  22  8
20  22  8
23  24  1
6  10  8
6  17  8

$$$$

