9000
  -OEChem-06261203193D

  9  8  0     1  0  0  0  0  0999 V2000
   -0.5739    0.1180   -0.5103 S   0  0  1  0  0  0  0  0  0  0  0  0
    2.0172    0.1253   -0.0208 O   0  0  0  0  0  0  0  0  0  0  0  0
   -1.5846   -0.9479    0.1447 O   0  0  0  0  0  0  0  0  0  0  0  0
   -0.7467    1.4148    0.2233 O   0  0  0  0  0  0  0  0  0  0  0  0
    0.8880   -0.7103    0.1632 C   0  0  0  0  0  0  0  0  0  0  0  0
    0.7482   -0.8906    1.2327 H   0  0  0  0  0  0  0  0  0  0  0  0
    1.0396   -1.6543   -0.3665 H   0  0  0  0  0  0  0  0  0  0  0  0
    2.7843   -0.3468    0.3452 H   0  0  0  0  0  0  0  0  0  0  0  0
   -2.4149   -0.5013    0.4333 H   0  0  0  0  0  0  0  0  0  0  0  0
  1  3  1  0  0  0  0
  1  4  2  0  0  0  0
  1  5  1  0  0  0  0
  2  5  1  0  0  0  0
  2  8  1  0  0  0  0
  3  9  1  0  0  0  0
  5  6  1  0  0  0  0
  5  7  1  0  0  0  0
M  END
> <PUBCHEM_COMPOUND_CID>
9000

> <PUBCHEM_CONFORMER_RMSD>
0.4

> <PUBCHEM_CONFORMER_DIVERSEORDER>
1
3
2

> <PUBCHEM_MMFF94_PARTIAL_CHARGES>
7
1 0.36
2 -0.68
3 -0.55
4 -0.5
5 0.47
8 0.4
9 0.5

> <PUBCHEM_EFFECTIVE_ROTOR_COUNT>
1

> <PUBCHEM_PHARMACOPHORE_FEATURES>
2
1 2 acceptor
1 2 donor

> <PUBCHEM_HEAVY_ATOM_COUNT>
5

> <PUBCHEM_ATOM_DEF_STEREO_COUNT>
0

> <PUBCHEM_ATOM_UDEF_STEREO_COUNT>
0

> <PUBCHEM_BOND_DEF_STEREO_COUNT>
0

> <PUBCHEM_BOND_UDEF_STEREO_COUNT>
0

> <PUBCHEM_ISOTOPIC_ATOM_COUNT>
0

> <PUBCHEM_COMPONENT_COUNT>
1

> <PUBCHEM_CACTVS_TAUTO_COUNT>
1

> <PUBCHEM_CONFORMER_ID>
0000232800000001

> <PUBCHEM_MMFF94_ENERGY>
2.0779

> <PUBCHEM_FEATURE_SELFOVERLAP>
10.148

> <PUBCHEM_SHAPE_FINGERPRINT>
139733 1 8718561513963462559
16714656 1 18261105227926479374
20096714 4 17977104883412720428
21015797 1 8790591633032223039
24536 1 18265912425949261102
5943 1 4965893247176537593

> <PUBCHEM_SHAPE_MULTIPOLES>
89.14
2.03
1.17
0.66
0.79
0.19
-0.07
-0.17
0.07
-0.42
0.13
-0.06
0.01
-0.02

> <PUBCHEM_SHAPE_SELFOVERLAP>
142.815

> <PUBCHEM_SHAPE_VOLUME>
63.1

> <PUBCHEM_COORDINATE_TYPE>
2
5
10

$$$$

