47205381
  -OEChem-06241222582D

 43 44  0     0  0  0  0  0  0999 V2000
    2.8660   -3.5670    0.0000 S   0  0  0  0  0  0  0  0  0  0  0  0
    2.3660   -4.4330    0.0000 O   0  0  0  0  0  0  0  0  0  0  0  0
    3.3660   -4.4330    0.0000 O   0  0  0  0  0  0  0  0  0  0  0  0
    7.1962    3.9330    0.0000 O   0  0  0  0  0  0  0  0  0  0  0  0
    4.5981   -0.5670    0.0000 O   0  0  0  0  0  0  0  0  0  0  0  0
    2.8660   -1.5670    0.0000 N   0  0  0  0  0  0  0  0  0  0  0  0
    5.4641    2.9330    0.0000 N   0  0  0  0  0  0  0  0  0  0  0  0
    3.7320    0.9330    0.0000 N   0  0  0  0  0  0  0  0  0  0  0  0
    2.0000   -2.0670    0.0000 C   0  0  0  0  0  0  0  0  0  0  0  0
    3.7320   -2.0670    0.0000 C   0  0  0  0  0  0  0  0  0  0  0  0
    2.0000   -3.0670    0.0000 C   0  0  0  0  0  0  0  0  0  0  0  0
    3.7320   -3.0670    0.0000 C   0  0  0  0  0  0  0  0  0  0  0  0
    2.8660   -0.5670    0.0000 C   0  0  0  0  0  0  0  0  0  0  0  0
    4.5981    2.4330    0.0000 C   0  0  0  0  0  0  0  0  0  0  0  0
    5.4641    3.9330    0.0000 C   0  0  0  0  0  0  0  0  0  0  0  0
    6.3301    2.4330    0.0000 C   0  0  0  0  0  0  0  0  0  0  0  0
    4.5981    1.4330    0.0000 C   0  0  0  0  0  0  0  0  0  0  0  0
    3.7320   -0.0670    0.0000 C   0  0  0  0  0  0  0  0  0  0  0  0
    7.1962    2.9330    0.0000 C   0  0  0  0  0  0  0  0  0  0  0  0
    6.3301    4.4330    0.0000 C   0  0  0  0  0  0  0  0  0  0  0  0
    1.7880   -1.4844    0.0000 H   0  0  0  0  0  0  0  0  0  0  0  0
    1.3894   -2.1747    0.0000 H   0  0  0  0  0  0  0  0  0  0  0  0
    4.3426   -2.1747    0.0000 H   0  0  0  0  0  0  0  0  0  0  0  0
    3.9441   -1.4844    0.0000 H   0  0  0  0  0  0  0  0  0  0  0  0
    1.3894   -2.9593    0.0000 H   0  0  0  0  0  0  0  0  0  0  0  0
    1.7880   -3.6496    0.0000 H   0  0  0  0  0  0  0  0  0  0  0  0
    3.9441   -3.6496    0.0000 H   0  0  0  0  0  0  0  0  0  0  0  0
    4.3426   -2.9593    0.0000 H   0  0  0  0  0  0  0  0  0  0  0  0
    2.6540    0.0156    0.0000 H   0  0  0  0  0  0  0  0  0  0  0  0
    2.2554   -0.6746    0.0000 H   0  0  0  0  0  0  0  0  0  0  0  0
    4.3860    3.0156    0.0000 H   0  0  0  0  0  0  0  0  0  0  0  0
    3.9875    2.3253    0.0000 H   0  0  0  0  0  0  0  0  0  0  0  0
    5.2520    4.5156    0.0000 H   0  0  0  0  0  0  0  0  0  0  0  0
    4.8535    3.8254    0.0000 H   0  0  0  0  0  0  0  0  0  0  0  0
    5.9316    1.9581    0.0000 H   0  0  0  0  0  0  0  0  0  0  0  0
    6.7287    1.9581    0.0000 H   0  0  0  0  0  0  0  0  0  0  0  0
    4.8101    0.8504    0.0000 H   0  0  0  0  0  0  0  0  0  0  0  0
    5.2087    1.5407    0.0000 H   0  0  0  0  0  0  0  0  0  0  0  0
    6.7287    4.9080    0.0000 H   0  0  0  0  0  0  0  0  0  0  0  0
    5.9316    4.9080    0.0000 H   0  0  0  0  0  0  0  0  0  0  0  0
    7.4082    2.3504    0.0000 H   0  0  0  0  0  0  0  0  0  0  0  0
    7.8067    3.0407    0.0000 H   0  0  0  0  0  0  0  0  0  0  0  0
    3.1951    1.2430    0.0000 H   0  0  0  0  0  0  0  0  0  0  0  0
  1  2  2  0  0  0  0
  1  3  2  0  0  0  0
  1 11  1  0  0  0  0
  1 12  1  0  0  0  0
  4 19  1  0  0  0  0
  4 20  1  0  0  0  0
  5 18  2  0  0  0  0
  6  9  1  0  0  0  0
  6 10  1  0  0  0  0
  6 13  1  0  0  0  0
  7 14  1  0  0  0  0
  7 15  1  0  0  0  0
  7 16  1  0  0  0  0
  8 17  1  0  0  0  0
  8 18  1  0  0  0  0
  8 43  1  0  0  0  0
  9 11  1  0  0  0  0
  9 21  1  0  0  0  0
  9 22  1  0  0  0  0
 10 12  1  0  0  0  0
 10 23  1  0  0  0  0
 10 24  1  0  0  0  0
 11 25  1  0  0  0  0
 11 26  1  0  0  0  0
 12 27  1  0  0  0  0
 12 28  1  0  0  0  0
 13 18  1  0  0  0  0
 13 29  1  0  0  0  0
 13 30  1  0  0  0  0
 14 17  1  0  0  0  0
 14 31  1  0  0  0  0
 14 32  1  0  0  0  0
 15 20  1  0  0  0  0
 15 33  1  0  0  0  0
 15 34  1  0  0  0  0
 16 19  1  0  0  0  0
 16 35  1  0  0  0  0
 16 36  1  0  0  0  0
 17 37  1  0  0  0  0
 17 38  1  0  0  0  0
 19 41  1  0  0  0  0
 19 42  1  0  0  0  0
 20 39  1  0  0  0  0
 20 40  1  0  0  0  0
M  END
> <PUBCHEM_COMPOUND_CID>
47205381

> <PUBCHEM_COMPOUND_CANONICALIZED>
1

> <PUBCHEM_CACTVS_COMPLEXITY>
401

> <PUBCHEM_CACTVS_HBOND_ACCEPTOR>
6

> <PUBCHEM_CACTVS_HBOND_DONOR>
1

> <PUBCHEM_CACTVS_ROTATABLE_BOND>
5

> <PUBCHEM_CACTVS_SUBSKEYS>
AAADceBzOABAAAAAAAAAAAAAAAAAAAAAAAAsWAAAAAAAAAAAAAAAHgQQAAAAAADlwAaAAAPABAoIAAEQEHBAAAAAABAAAICIAAACQAAAACATAAAAFgCwAAAAAAAAAAAAAAAAAAAAAAAAAAAAAAAAAAAAAA==

> <PUBCHEM_IUPAC_OPENEYE_NAME>
2-(1,1-dioxo-1,4-thiazinan-4-yl)-N-(2-morpholinoethyl)acetamide

> <PUBCHEM_IUPAC_CAS_NAME>
2-(1,1-dioxo-1,4-thiazinan-4-yl)-N-[2-(4-morpholinyl)ethyl]acetamide

> <PUBCHEM_IUPAC_NAME>
2-(1,1-dioxo-1,4-thiazinan-4-yl)-N-(2-morpholin-4-ylethyl)acetamide

> <PUBCHEM_IUPAC_SYSTEMATIC_NAME>
2-[1,1-bis(oxidanylidene)-1,4-thiazinan-4-yl]-N-(2-morpholin-4-ylethyl)ethanamide

> <PUBCHEM_IUPAC_TRADITIONAL_NAME>
2-(1,1-diketo-1,4-thiazinan-4-yl)-N-(2-morpholinoethyl)acetamide

> <PUBCHEM_IUPAC_INCHI>
InChI=1S/C12H23N3O4S/c16-12(11-15-5-9-20(17,18)10-6-15)13-1-2-14-3-7-19-8-4-14/h1-11H2,(H,13,16)

> <PUBCHEM_IUPAC_INCHIKEY>
HJMCCJLTRHEZMU-UHFFFAOYSA-N

> <PUBCHEM_XLOGP3_AA>
-1.6

> <PUBCHEM_EXACT_MASS>
305.140927

> <PUBCHEM_MOLECULAR_FORMULA>
C12H23N3O4S

> <PUBCHEM_MOLECULAR_WEIGHT>
305.39372

> <PUBCHEM_OPENEYE_CAN_SMILES>
C1COCCN1CCNC(=O)CN2CCS(=O)(=O)CC2

> <PUBCHEM_OPENEYE_ISO_SMILES>
C1COCCN1CCNC(=O)CN2CCS(=O)(=O)CC2

> <PUBCHEM_CACTVS_TPSA>
87.3

> <PUBCHEM_MONOISOTOPIC_WEIGHT>
305.140927

> <PUBCHEM_TOTAL_CHARGE>
0

> <PUBCHEM_HEAVY_ATOM_COUNT>
20

> <PUBCHEM_ATOM_DEF_STEREO_COUNT>
0

> <PUBCHEM_ATOM_UDEF_STEREO_COUNT>
0

> <PUBCHEM_BOND_DEF_STEREO_COUNT>
0

> <PUBCHEM_BOND_UDEF_STEREO_COUNT>
0

> <PUBCHEM_ISOTOPIC_ATOM_COUNT>
0

> <PUBCHEM_COMPONENT_COUNT>
1

> <PUBCHEM_CACTVS_TAUTO_COUNT>
2

> <PUBCHEM_COORDINATE_TYPE>
1
5
255

$$$$

