17396174
  -OEChem-06241222553D

 39 42  0     1  0  0  0  0  0999 V2000
   -0.2895   -2.8863   -0.8198 S   0  0  0  0  0  0  0  0  0  0  0  0
    2.5786   -1.3201   -1.7525 O   0  0  0  0  0  0  0  0  0  0  0  0
   -1.6551   -0.8239    0.3920 N   0  0  0  0  0  0  0  0  0  0  0  0
   -2.7045    0.6959    1.6200 N   0  0  0  0  0  0  0  0  0  0  0  0
   -1.5939   -1.3851    2.4493 N   0  0  0  0  0  0  0  0  0  0  0  0
   -0.9185   -2.3850    1.7544 N   0  0  0  0  0  0  0  0  0  0  0  0
    1.8472   -0.6140    0.3627 N   0  0  0  0  0  0  0  0  0  0  0  0
   -2.0718    0.0912   -0.5228 C   0  0  0  0  0  0  0  0  0  0  0  0
   -2.0462   -0.4297    1.6243 C   0  0  0  0  0  0  0  0  0  0  0  0
   -2.7326    1.0428    0.2744 C   0  0  0  0  0  0  0  0  0  0  0  0
   -0.9713   -2.0159    0.4991 C   0  0  0  0  0  0  0  0  0  0  0  0
    1.4497   -2.8931   -0.3224 C   0  0  2  0  0  0  0  0  0  0  0  0
   -1.9598    0.2084   -1.9093 C   0  0  0  0  0  0  0  0  0  0  0  0
   -3.3097    2.1662   -0.3435 C   0  0  0  0  0  0  0  0  0  0  0  0
   -2.5422    1.3357   -2.4990 C   0  0  0  0  0  0  0  0  0  0  0  0
    2.0352   -1.5279   -0.6711 C   0  0  0  0  0  0  0  0  0  0  0  0
    2.1825   -4.0210   -1.0378 C   0  0  0  0  0  0  0  0  0  0  0  0
   -3.2049    2.2970   -1.7333 C   0  0  0  0  0  0  0  0  0  0  0  0
    2.2524    0.7414    0.4013 C   0  0  0  0  0  0  0  0  0  0  0  0
    1.9799    1.5189    1.5268 C   0  0  0  0  0  0  0  0  0  0  0  0
    2.9236    1.3000   -0.6864 C   0  0  0  0  0  0  0  0  0  0  0  0
    2.3787    2.8550    1.5647 C   0  0  0  0  0  0  0  0  0  0  0  0
    3.3224    2.6361   -0.6483 C   0  0  0  0  0  0  0  0  0  0  0  0
    3.0500    3.4136    0.4772 C   0  0  0  0  0  0  0  0  0  0  0  0
    1.5363   -3.0717    0.7553 H   0  0  0  0  0  0  0  0  0  0  0  0
   -1.4468   -0.5315   -2.5121 H   0  0  0  0  0  0  0  0  0  0  0  0
   -1.6967   -1.4301    3.4560 H   0  0  0  0  0  0  0  0  0  0  0  0
   -3.8270    2.9203    0.2413 H   0  0  0  0  0  0  0  0  0  0  0  0
   -2.4767    1.4649   -3.5768 H   0  0  0  0  0  0  0  0  0  0  0  0
    2.1273   -3.9267   -2.1286 H   0  0  0  0  0  0  0  0  0  0  0  0
    3.2452   -4.0122   -0.7696 H   0  0  0  0  0  0  0  0  0  0  0  0
    1.7792   -5.0000   -0.7562 H   0  0  0  0  0  0  0  0  0  0  0  0
   -3.6464    3.1612   -2.2230 H   0  0  0  0  0  0  0  0  0  0  0  0
    1.3740   -0.9409    1.2019 H   0  0  0  0  0  0  0  0  0  0  0  0
    1.4558    1.0961    2.3802 H   0  0  0  0  0  0  0  0  0  0  0  0
    3.1710    0.7639   -1.5914 H   0  0  0  0  0  0  0  0  0  0  0  0
    2.1659    3.4605    2.4408 H   0  0  0  0  0  0  0  0  0  0  0  0
    3.8452    3.0724   -1.4946 H   0  0  0  0  0  0  0  0  0  0  0  0
    3.3603    4.4540    0.5067 H   0  0  0  0  0  0  0  0  0  0  0  0
  1 11  1  0  0  0  0
  1 12  1  0  0  0  0
  2 16  2  0  0  0  0
  3  8  1  0  0  0  0
  3  9  1  0  0  0  0
  3 11  1  0  0  0  0
  4  9  2  0  0  0  0
  4 10  1  0  0  0  0
  5  6  1  0  0  0  0
  5  9  1  0  0  0  0
  5 27  1  0  0  0  0
  6 11  2  0  0  0  0
  7 16  1  0  0  0  0
  7 19  1  0  0  0  0
  7 34  1  0  0  0  0
  8 10  1  0  0  0  0
  8 13  2  0  0  0  0
 10 14  2  0  0  0  0
 12 16  1  0  0  0  0
 12 17  1  0  0  0  0
 12 25  1  0  0  0  0
 13 15  1  0  0  0  0
 13 26  1  0  0  0  0
 14 18  1  0  0  0  0
 14 28  1  0  0  0  0
 15 18  2  0  0  0  0
 15 29  1  0  0  0  0
 17 30  1  0  0  0  0
 17 31  1  0  0  0  0
 17 32  1  0  0  0  0
 18 33  1  0  0  0  0
 19 20  2  0  0  0  0
 19 21  1  0  0  0  0
 20 22  1  0  0  0  0
 20 35  1  0  0  0  0
 21 23  2  0  0  0  0
 21 36  1  0  0  0  0
 22 24  2  0  0  0  0
 22 37  1  0  0  0  0
 23 24  1  0  0  0  0
 23 38  1  0  0  0  0
 24 39  1  0  0  0  0
M  END
> <PUBCHEM_COMPOUND_CID>
17396174

> <PUBCHEM_CONFORMER_RMSD>
0.8

> <PUBCHEM_CONFORMER_DIVERSEORDER>
1
74
51
30
92
47
15
9
65
19
93
39
85
76
77
72
79
32
6
67
81
34
73
25
28
7
86
69
53
90
26
33
27
29
56
42
68
60
66
10
62
63
24
71
5
45
16
48
12
80
13
57
41
3
23
75
31
44
14
20
52
88
4
50
96
83
2
70
11
18
91
61
94
84
8
55
95
87
64
59
46
82
58
38
37
40
35
54
43
49
78
36
21
89
22
17

> <PUBCHEM_MMFF94_PARTIAL_CHARGES>
34
1 -0.37
10 0.23
11 0.6
12 0.29
13 -0.15
14 -0.15
15 -0.15
16 0.57
18 -0.15
19 0.12
2 -0.57
20 -0.15
21 -0.15
22 -0.15
23 -0.15
24 -0.15
26 0.15
27 0.4
28 0.15
29 0.15
3 0.29
33 0.15
34 0.37
35 0.15
36 0.15
37 0.15
38 0.15
39 0.15
4 -0.57
5 -0.44
6 -0.49
7 -0.55
8 -0.15
9 0.27

> <PUBCHEM_EFFECTIVE_ROTOR_COUNT>
5

> <PUBCHEM_PHARMACOPHORE_FEATURES>
9
1 17 hydrophobe
1 2 acceptor
1 5 donor
1 7 donor
4 3 4 5 9 cation
5 3 4 8 9 10 rings
5 3 5 6 9 11 rings
6 19 20 21 22 23 24 rings
6 8 10 13 14 15 18 rings

> <PUBCHEM_HEAVY_ATOM_COUNT>
24

> <PUBCHEM_ATOM_DEF_STEREO_COUNT>
0

> <PUBCHEM_ATOM_UDEF_STEREO_COUNT>
1

> <PUBCHEM_BOND_DEF_STEREO_COUNT>
0

> <PUBCHEM_BOND_UDEF_STEREO_COUNT>
0

> <PUBCHEM_ISOTOPIC_ATOM_COUNT>
0

> <PUBCHEM_COMPONENT_COUNT>
1

> <PUBCHEM_CACTVS_TAUTO_COUNT>
4

> <PUBCHEM_CONFORMER_ID>
010971CE00000001

> <PUBCHEM_MMFF94_ENERGY>
76.4923

> <PUBCHEM_FEATURE_SELFOVERLAP>
46.11

> <PUBCHEM_SHAPE_FINGERPRINT>
10165383 225 18051093013726495228
11221954 11 18271816712958936125
12156800 1 15101931111167794436
128993 33 18266444430658260904
13134695 92 17906180898848645854
13294875 104 17557443263748373659
13642711 20 17827036793898575870
13911987 19 17977643627195154966
14468879 13 18271538481051734029
15210252 30 17480008036075718220
15664445 248 16740077092276852613
17138139 8 15385611150248618980
18219364 16 18410000040240105162
18981168 100 18339918225700482404
19930381 70 18408328800131117045
22907989 373 17908999702811483980
238 59 18335151915702925045
3187 122 17627783116007753939
350125 39 18264201410000503622
35225 105 17692568548624315996
3524813 1 17628052809884162919
445580 44 17117229208092744040
469060 322 17116645345927363890
6287921 2 17182474227974370488
7226269 152 17696755832917489282
81228 2 17774425085057852251
9862522 239 18121786032736415584
9981440 41 18119837749160089960

> <PUBCHEM_SHAPE_MULTIPOLES>
466.98
5.92
4.71
2.17
0.2
2.09
-0.2
-5.29
1.22
3.73
0.69
-1.39
-0.09
2.28

> <PUBCHEM_SHAPE_SELFOVERLAP>
1019.776

> <PUBCHEM_SHAPE_VOLUME>
256

> <PUBCHEM_COORDINATE_TYPE>
2
5
10

$$$$

