4529
  -OEChem-06261200112D

119123  0     1  0  0  0  0  0999 V2000
   11.4879   -1.2348    0.0000 O   0  0  0  0  0  0  0  0  0  0  0  0
    7.4758   -3.4491    0.0000 O   0  0  0  0  0  0  0  0  0  0  0  0
    2.0000    0.1754    0.0000 O   0  0  0  0  0  0  0  0  0  0  0  0
    7.4154    3.2090    0.0000 O   0  0  0  0  0  0  0  0  0  0  0  0
   10.8642   -4.1693    0.0000 O   0  0  0  0  0  0  0  0  0  0  0  0
    4.0874   -2.7288    0.0000 O   0  0  0  0  0  0  0  0  0  0  0  0
    3.6407    3.5002    0.0000 O   0  0  0  0  0  0  0  0  0  0  0  0
    9.6743    2.7288    0.0000 O   0  0  0  0  0  0  0  0  0  0  0  0
    9.2585    0.7725    0.0000 O   0  0  0  0  0  0  0  0  0  0  0  0
    9.8120   -2.5491    0.0000 O   0  0  0  0  0  0  0  0  0  0  0  0
    2.3932   -2.3687    0.0000 O   0  0  0  0  0  0  0  0  0  0  0  0
    4.7996    4.7873    0.0000 O   0  0  0  0  0  0  0  0  0  0  0  0
   10.7448   -0.5657    0.0000 C   0  0  3  0  0  0  0  0  0  0  0  0
   11.2800   -2.2130    0.0000 C   0  0  3  0  0  0  0  0  0  0  0  0
    8.4268   -3.1400    0.0000 C   0  0  3  0  0  0  0  0  0  0  0  0
    2.8090   -0.4124    0.0000 C   0  0  3  0  0  0  0  0  0  0  0  0
    6.7326   -2.7799    0.0000 C   0  0  3  0  0  0  0  0  0  0  0  0
    2.3090    1.1264    0.0000 C   0  0  3  0  0  0  0  0  0  0  0  0
    6.2859    3.4491    0.0000 C   0  0  3  0  0  0  0  0  0  0  0  0
    8.1880    4.0671    0.0000 C   0  0  3  0  0  0  0  0  0  0  0  0
    9.9745   -1.2015    0.0000 C   0  0  0  0  0  0  0  0  0  0  0  0
   10.2832   -2.1514    0.0000 C   0  0  0  0  0  0  0  0  0  0  0  0
    8.2614   -2.1551    0.0000 C   0  0  0  0  0  0  0  0  0  0  0  0
    3.6180    0.1754    0.0000 C   0  0  0  0  0  0  0  0  0  0  0  0
    7.2844   -1.9474    0.0000 C   0  0  0  0  0  0  0  0  0  0  0  0
    3.3090    1.1264    0.0000 C   0  0  0  0  0  0  0  0  0  0  0  0
    6.4938    4.4272    0.0000 C   0  0  0  0  0  0  0  0  0  0  0  0
    7.4449    4.7362    0.0000 C   0  0  0  0  0  0  0  0  0  0  0  0
   10.9527    0.4124    0.0000 C   0  0  3  0  0  0  0  0  0  0  0  0
    9.1700   -3.8092    0.0000 C   0  0  3  0  0  0  0  0  0  0  0  0
    3.5522   -1.0816    0.0000 C   0  0  3  0  0  0  0  0  0  0  0  0
   12.0232   -2.8821    0.0000 C   0  0  0  0  0  0  0  0  0  0  0  0
    5.3349    3.1400    0.0000 C   0  0  3  0  0  0  0  0  0  0  0  0
    5.7816   -3.0890    0.0000 C   0  0  0  0  0  0  0  0  0  0  0  0
    2.5169    2.1046    0.0000 C   0  0  0  0  0  0  0  0  0  0  0  0
    9.1391    4.3761    0.0000 C   0  0  0  0  0  0  0  0  0  0  0  0
   11.8153   -3.8603    0.0000 C   0  0  3  0  0  0  0  0  0  0  0  0
    5.0384   -2.4198    0.0000 C   0  0  3  0  0  0  0  0  0  0  0  0
    3.4328    2.5220    0.0000 C   0  0  3  0  0  0  0  0  0  0  0  0
    9.8822    3.7070    0.0000 C   0  0  3  0  0  0  0  0  0  0  0  0
   10.2096    1.0816    0.0000 C   0  0  0  0  0  0  0  0  0  0  0  0
   10.1211   -3.5002    0.0000 C   0  0  0  0  0  0  0  0  0  0  0  0
    3.3442   -2.0597    0.0000 C   0  0  0  0  0  0  0  0  0  0  0  0
    4.5917    3.8092    0.0000 C   0  0  0  0  0  0  0  0  0  0  0  0
   11.9038    0.7214    0.0000 C   0  0  0  0  0  0  0  0  0  0  0  0
    8.9621   -4.7873    0.0000 C   0  0  0  0  0  0  0  0  0  0  0  0
    4.5032   -0.7725    0.0000 C   0  0  0  0  0  0  0  0  0  0  0  0
    5.1270    2.1619    0.0000 C   0  0  0  0  0  0  0  0  0  0  0  0
   10.4175    2.0597    0.0000 C   0  0  0  0  0  0  0  0  0  0  0  0
   12.5584   -4.5294    0.0000 C   0  0  0  0  0  0  0  0  0  0  0  0
    5.2464   -1.4417    0.0000 C   0  0  0  0  0  0  0  0  0  0  0  0
    4.2167    1.9011    0.0000 C   0  0  0  0  0  0  0  0  0  0  0  0
   10.8333    4.0160    0.0000 C   0  0  0  0  0  0  0  0  0  0  0  0
   10.2146   -0.2442    0.0000 H   0  0  0  0  0  0  0  0  0  0  0  0
   11.0401   -2.7847    0.0000 H   0  0  0  0  0  0  0  0  0  0  0  0
    8.9703   -2.8417    0.0000 H   0  0  0  0  0  0  0  0  0  0  0  0
    2.4188   -0.8943    0.0000 H   0  0  0  0  0  0  0  0  0  0  0  0
    6.3575   -2.2863    0.0000 H   0  0  0  0  0  0  0  0  0  0  0  0
    1.7101    1.2869    0.0000 H   0  0  0  0  0  0  0  0  0  0  0  0
    5.8252    3.8639    0.0000 H   0  0  0  0  0  0  0  0  0  0  0  0
    8.3169    4.6736    0.0000 H   0  0  0  0  0  0  0  0  0  0  0  0
    9.6427   -0.6778    0.0000 H   0  0  0  0  0  0  0  0  0  0  0  0
    9.4134   -1.4653    0.0000 H   0  0  0  0  0  0  0  0  0  0  0  0
    9.6742   -2.2678    0.0000 H   0  0  0  0  0  0  0  0  0  0  0  0
   10.3226   -2.7701    0.0000 H   0  0  0  0  0  0  0  0  0  0  0  0
    8.8808   -2.1296    0.0000 H   0  0  0  0  0  0  0  0  0  0  0  0
    8.3135   -1.5373    0.0000 H   0  0  0  0  0  0  0  0  0  0  0  0
    3.9280   -0.3616    0.0000 H   0  0  0  0  0  0  0  0  0  0  0  0
    4.1844    0.4275    0.0000 H   0  0  0  0  0  0  0  0  0  0  0  0
    7.4881   -1.3618    0.0000 H   0  0  0  0  0  0  0  0  0  0  0  0
    6.7289   -1.6722    0.0000 H   0  0  0  0  0  0  0  0  0  0  0  0
    3.9155    1.2553    0.0000 H   0  0  0  0  0  0  0  0  0  0  0  0
    3.2442    1.7430    0.0000 H   0  0  0  0  0  0  0  0  0  0  0  0
    6.4075    5.0412    0.0000 H   0  0  0  0  0  0  0  0  0  0  0  0
    5.8742    4.4488    0.0000 H   0  0  0  0  0  0  0  0  0  0  0  0
    7.9335    5.1179    0.0000 H   0  0  0  0  0  0  0  0  0  0  0  0
    7.1538    5.2837    0.0000 H   0  0  0  0  0  0  0  0  0  0  0  0
   11.0816    1.0189    0.0000 H   0  0  0  0  0  0  0  0  0  0  0  0
    8.5803   -4.0008    0.0000 H   0  0  0  0  0  0  0  0  0  0  0  0
    4.0129   -1.4964    0.0000 H   0  0  0  0  0  0  0  0  0  0  0  0
   12.5980   -3.1144    0.0000 H   0  0  0  0  0  0  0  0  0  0  0  0
   12.3517   -2.3563    0.0000 H   0  0  0  0  0  0  0  0  0  0  0  0
    4.7452    2.9485    0.0000 H   0  0  0  0  0  0  0  0  0  0  0  0
    5.2930   -3.4707    0.0000 H   0  0  0  0  0  0  0  0  0  0  0  0
    6.0727   -3.6364    0.0000 H   0  0  0  0  0  0  0  0  0  0  0  0
    2.3845    2.7102    0.0000 H   0  0  0  0  0  0  0  0  0  0  0  0
    1.8969    2.1027    0.0000 H   0  0  0  0  0  0  0  0  0  0  0  0
    9.6277    4.7578    0.0000 H   0  0  0  0  0  0  0  0  0  0  0  0
    8.8480    4.9235    0.0000 H   0  0  0  0  0  0  0  0  0  0  0  0
   11.6864   -4.4667    0.0000 H   0  0  0  0  0  0  0  0  0  0  0  0
    4.5777   -2.0050    0.0000 H   0  0  0  0  0  0  0  0  0  0  0  0
    4.0161    2.7321    0.0000 H   0  0  0  0  0  0  0  0  0  0  0  0
   10.3430    3.2921    0.0000 H   0  0  0  0  0  0  0  0  0  0  0  0
   12.0953    0.1318    0.0000 H   0  0  0  0  0  0  0  0  0  0  0  0
   12.4934    0.9130    0.0000 H   0  0  0  0  0  0  0  0  0  0  0  0
   11.7122    1.3111    0.0000 H   0  0  0  0  0  0  0  0  0  0  0  0
    8.3556   -4.6584    0.0000 H   0  0  0  0  0  0  0  0  0  0  0  0
    8.8332   -5.3938    0.0000 H   0  0  0  0  0  0  0  0  0  0  0  0
    9.5685   -4.9162    0.0000 H   0  0  0  0  0  0  0  0  0  0  0  0
    4.6948   -1.3622    0.0000 H   0  0  0  0  0  0  0  0  0  0  0  0
    5.0929   -0.5810    0.0000 H   0  0  0  0  0  0  0  0  0  0  0  0
    4.3116   -0.1829    0.0000 H   0  0  0  0  0  0  0  0  0  0  0  0
    4.5205    2.2908    0.0000 H   0  0  0  0  0  0  0  0  0  0  0  0
    4.9980    1.5554    0.0000 H   0  0  0  0  0  0  0  0  0  0  0  0
    5.7334    2.0330    0.0000 H   0  0  0  0  0  0  0  0  0  0  0  0
   10.9923    1.8274    0.0000 H   0  0  0  0  0  0  0  0  0  0  0  0
   10.7460    2.5855    0.0000 H   0  0  0  0  0  0  0  0  0  0  0  0
   12.1435   -4.9902    0.0000 H   0  0  0  0  0  0  0  0  0  0  0  0
   13.0192   -4.9443    0.0000 H   0  0  0  0  0  0  0  0  0  0  0  0
   12.9733   -4.0687    0.0000 H   0  0  0  0  0  0  0  0  0  0  0  0
    5.8528   -1.5706    0.0000 H   0  0  0  0  0  0  0  0  0  0  0  0
    5.3753   -0.8352    0.0000 H   0  0  0  0  0  0  0  0  0  0  0  0
    4.6399   -1.3128    0.0000 H   0  0  0  0  0  0  0  0  0  0  0  0
    3.8317    1.4151    0.0000 H   0  0  0  0  0  0  0  0  0  0  0  0
    4.7027    1.5162    0.0000 H   0  0  0  0  0  0  0  0  0  0  0  0
    4.6016    2.3872    0.0000 H   0  0  0  0  0  0  0  0  0  0  0  0
   11.0249    3.4264    0.0000 H   0  0  0  0  0  0  0  0  0  0  0  0
   11.4229    4.2076    0.0000 H   0  0  0  0  0  0  0  0  0  0  0  0
   10.6417    4.6057    0.0000 H   0  0  0  0  0  0  0  0  0  0  0  0
  1 13  1  0  0  0  0
  1 14  1  0  0  0  0
  2 15  1  0  0  0  0
  2 17  1  0  0  0  0
  3 16  1  0  0  0  0
  3 18  1  0  0  0  0
  4 19  1  0  0  0  0
  4 20  1  0  0  0  0
  5 37  1  0  0  0  0
  5 42  1  0  0  0  0
  6 38  1  0  0  0  0
  6 43  1  0  0  0  0
  7 39  1  0  0  0  0
  7 44  1  0  0  0  0
  8 40  1  0  0  0  0
  8 49  1  0  0  0  0
  9 41  2  0  0  0  0
 10 42  2  0  0  0  0
 11 43  2  0  0  0  0
 12 44  2  0  0  0  0
 13 21  1  0  0  0  0
 13 29  1  0  0  0  0
 13 54  1  0  0  0  0
 14 22  1  0  0  0  0
 14 32  1  0  0  0  0
 14 55  1  0  0  0  0
 15 23  1  0  0  0  0
 15 30  1  0  0  0  0
 15 56  1  0  0  0  0
 16 24  1  0  0  0  0
 16 31  1  0  0  0  0
 16 57  1  0  0  0  0
 17 25  1  0  0  0  0
 17 34  1  0  0  0  0
 17 58  1  0  0  0  0
 18 26  1  0  0  0  0
 18 35  1  0  0  0  0
 18 59  1  0  0  0  0
 19 27  1  0  0  0  0
 19 33  1  0  0  0  0
 19 60  1  0  0  0  0
 20 28  1  0  0  0  0
 20 36  1  0  0  0  0
 20 61  1  0  0  0  0
 21 22  1  0  0  0  0
 21 62  1  0  0  0  0
 21 63  1  0  0  0  0
 22 64  1  0  0  0  0
 22 65  1  0  0  0  0
 23 25  1  0  0  0  0
 23 66  1  0  0  0  0
 23 67  1  0  0  0  0
 24 26  1  0  0  0  0
 24 68  1  0  0  0  0
 24 69  1  0  0  0  0
 25 70  1  0  0  0  0
 25 71  1  0  0  0  0
 26 72  1  0  0  0  0
 26 73  1  0  0  0  0
 27 28  1  0  0  0  0
 27 74  1  0  0  0  0
 27 75  1  0  0  0  0
 28 76  1  0  0  0  0
 28 77  1  0  0  0  0
 29 41  1  0  0  0  0
 29 45  1  0  0  0  0
 29 78  1  0  0  0  0
 30 42  1  0  0  0  0
 30 46  1  0  0  0  0
 30 79  1  0  0  0  0
 31 43  1  0  0  0  0
 31 47  1  0  0  0  0
 31 80  1  0  0  0  0
 32 37  1  0  0  0  0
 32 81  1  0  0  0  0
 32 82  1  0  0  0  0
 33 44  1  0  0  0  0
 33 48  1  0  0  0  0
 33 83  1  0  0  0  0
 34 38  1  0  0  0  0
 34 84  1  0  0  0  0
 34 85  1  0  0  0  0
 35 39  1  0  0  0  0
 35 86  1  0  0  0  0
 35 87  1  0  0  0  0
 36 40  1  0  0  0  0
 36 88  1  0  0  0  0
 36 89  1  0  0  0  0
 37 50  1  0  0  0  0
 37 90  1  0  0  0  0
 38 51  1  0  0  0  0
 38 91  1  0  0  0  0
 39 52  1  0  0  0  0
 39 92  1  0  0  0  0
 40 53  1  0  0  0  0
 40 93  1  0  0  0  0
 41 49  1  0  0  0  0
 45 94  1  0  0  0  0
 45 95  1  0  0  0  0
 45 96  1  0  0  0  0
 46 97  1  0  0  0  0
 46 98  1  0  0  0  0
 46 99  1  0  0  0  0
 47100  1  0  0  0  0
 47101  1  0  0  0  0
 47102  1  0  0  0  0
 48103  1  0  0  0  0
 48104  1  0  0  0  0
 48105  1  0  0  0  0
 49106  1  0  0  0  0
 49107  1  0  0  0  0
 50108  1  0  0  0  0
 50109  1  0  0  0  0
 50110  1  0  0  0  0
 51111  1  0  0  0  0
 51112  1  0  0  0  0
 51113  1  0  0  0  0
 52114  1  0  0  0  0
 52115  1  0  0  0  0
 52116  1  0  0  0  0
 53117  1  0  0  0  0
 53118  1  0  0  0  0
 53119  1  0  0  0  0
M  END
> <PUBCHEM_COMPOUND_CID>
4529

> <PUBCHEM_COMPOUND_CANONICALIZED>
1

> <PUBCHEM_CACTVS_COMPLEXITY>
1240

> <PUBCHEM_CACTVS_HBOND_ACCEPTOR>
12

> <PUBCHEM_CACTVS_HBOND_DONOR>
0

> <PUBCHEM_CACTVS_ROTATABLE_BOND>
0

> <PUBCHEM_CACTVS_SUBSKEYS>
AAADcfB8PAAAAAAAAAAAAAAAAAAAASJEiQAAAAAAAAAAAAAAAAAAGgAAAAAADRSggAICCAAABAAIAICQCAIAAAAAAAAAAAFAAAAAABYAAAQCAAAFIAAAAAHIyPCOAAAAAAAAAAAAAAAAAAAAAAAAAAAAAA==

> <PUBCHEM_IUPAC_INCHI>
InChI=1S/C41H66O12/c1-22-17-30-10-14-36(51-30)27(6)39(43)48-24(3)19-32-12-16-38(53-32)29(8)41(45)49-25(4)20-33-11-15-37(52-33)28(7)40(44)47-23(2)18-31-9-13-35(50-31)26(5)34(42)21-46-22/h22-33,35-38H,9-21H2,1-8H3

> <PUBCHEM_IUPAC_INCHIKEY>
DETWTIMZWLZVLQ-UHFFFAOYSA-N

> <PUBCHEM_XLOGP3_AA>
6.4

> <PUBCHEM_EXACT_MASS>
750.455428

> <PUBCHEM_MOLECULAR_FORMULA>
C41H66O12

> <PUBCHEM_MOLECULAR_WEIGHT>
750.95554

> <PUBCHEM_OPENEYE_CAN_SMILES>
CC1CC2CCC(O2)C(C(=O)OC(CC3CCC(O3)C(C(=O)OC(CC4CCC(O4)C(C(=O)OC(CC5CCC(O5)C(C(=O)CO1)C)C)C)C)C)C)C

> <PUBCHEM_OPENEYE_ISO_SMILES>
CC1CC2CCC(O2)C(C(=O)OC(CC3CCC(O3)C(C(=O)OC(CC4CCC(O4)C(C(=O)OC(CC5CCC(O5)C(C(=O)CO1)C)C)C)C)C)C)C

> <PUBCHEM_CACTVS_TPSA>
142

> <PUBCHEM_MONOISOTOPIC_WEIGHT>
750.455428

> <PUBCHEM_TOTAL_CHARGE>
0

> <PUBCHEM_HEAVY_ATOM_COUNT>
53

> <PUBCHEM_ATOM_DEF_STEREO_COUNT>
0

> <PUBCHEM_ATOM_UDEF_STEREO_COUNT>
16

> <PUBCHEM_BOND_DEF_STEREO_COUNT>
0

> <PUBCHEM_BOND_UDEF_STEREO_COUNT>
0

> <PUBCHEM_ISOTOPIC_ATOM_COUNT>
0

> <PUBCHEM_COMPONENT_COUNT>
1

> <PUBCHEM_CACTVS_TAUTO_COUNT>
1

> <PUBCHEM_COORDINATE_TYPE>
1
5
255

> <PUBCHEM_BONDANNOTATIONS>
13  21  3
14  32  3
15  23  3
16  24  3
17  34  3
18  35  3
19  27  3
20  28  3
29  45  3
30  46  3
31  47  3
33  48  3
37  50  3
38  51  3
39  52  3
40  53  3

$$$$

