6502
  -OEChem-06261201213D

 20 19  0     0  0  0  0  0  0999 V2000
    1.5046   -1.7395    0.4363 O   0  0  0  0  0  0  0  0  0  0  0  0
   -2.3949   -0.0280    0.5800 O   0  0  0  0  0  0  0  0  0  0  0  0
    1.4303    1.7931    0.4139 O   0  0  0  0  0  0  0  0  0  0  0  0
   -0.1019    0.0017   -0.2865 C   0  0  0  0  0  0  0  0  0  0  0  0
    1.0456   -0.9669   -0.6646 C   0  0  0  0  0  0  0  0  0  0  0  0
   -1.2890   -0.8481    0.2245 C   0  0  0  0  0  0  0  0  0  0  0  0
    0.3382    0.9829    0.8276 C   0  0  0  0  0  0  0  0  0  0  0  0
   -0.5328    0.8048   -1.5311 C   0  0  0  0  0  0  0  0  0  0  0  0
    1.9014   -0.4175   -1.0721 H   0  0  0  0  0  0  0  0  0  0  0  0
    0.7085   -1.6634   -1.4416 H   0  0  0  0  0  0  0  0  0  0  0  0
   -1.6242   -1.5673   -0.5316 H   0  0  0  0  0  0  0  0  0  0  0  0
   -1.0090   -1.4160    1.1181 H   0  0  0  0  0  0  0  0  0  0  0  0
   -0.4795    1.6611    1.0943 H   0  0  0  0  0  0  0  0  0  0  0  0
    0.6297    0.4521    1.7407 H   0  0  0  0  0  0  0  0  0  0  0  0
   -0.9536    0.1442   -2.2975 H   0  0  0  0  0  0  0  0  0  0  0  0
    0.3200    1.3261   -1.9800 H   0  0  0  0  0  0  0  0  0  0  0  0
   -1.2865    1.5610   -1.2870 H   0  0  0  0  0  0  0  0  0  0  0  0
    2.2139   -2.3164    0.1052 H   0  0  0  0  0  0  0  0  0  0  0  0
   -2.7979    0.2988   -0.2418 H   0  0  0  0  0  0  0  0  0  0  0  0
    2.2195    1.2275    0.3737 H   0  0  0  0  0  0  0  0  0  0  0  0
  1  5  1  0  0  0  0
  1 18  1  0  0  0  0
  2  6  1  0  0  0  0
  2 19  1  0  0  0  0
  3  7  1  0  0  0  0
  3 20  1  0  0  0  0
  4  5  1  0  0  0  0
  4  6  1  0  0  0  0
  4  7  1  0  0  0  0
  4  8  1  0  0  0  0
  5  9  1  0  0  0  0
  5 10  1  0  0  0  0
  6 11  1  0  0  0  0
  6 12  1  0  0  0  0
  7 13  1  0  0  0  0
  7 14  1  0  0  0  0
  8 15  1  0  0  0  0
  8 16  1  0  0  0  0
  8 17  1  0  0  0  0
M  END
> <PUBCHEM_COMPOUND_CID>
6502

> <PUBCHEM_CONFORMER_RMSD>
0.6

> <PUBCHEM_CONFORMER_DIVERSEORDER>
2
7
6
5
8
1
4
3

> <PUBCHEM_MMFF94_PARTIAL_CHARGES>
9
1 -0.68
18 0.4
19 0.4
2 -0.68
20 0.4
3 -0.68
5 0.28
6 0.28
7 0.28

> <PUBCHEM_EFFECTIVE_ROTOR_COUNT>
3

> <PUBCHEM_PHARMACOPHORE_FEATURES>
7
1 1 acceptor
1 1 donor
1 2 acceptor
1 2 donor
1 3 acceptor
1 3 donor
1 8 hydrophobe

> <PUBCHEM_HEAVY_ATOM_COUNT>
8

> <PUBCHEM_ATOM_DEF_STEREO_COUNT>
0

> <PUBCHEM_ATOM_UDEF_STEREO_COUNT>
0

> <PUBCHEM_BOND_DEF_STEREO_COUNT>
0

> <PUBCHEM_BOND_UDEF_STEREO_COUNT>
0

> <PUBCHEM_ISOTOPIC_ATOM_COUNT>
0

> <PUBCHEM_COMPONENT_COUNT>
1

> <PUBCHEM_CACTVS_TAUTO_COUNT>
1

> <PUBCHEM_CONFORMER_ID>
0000196600000002

> <PUBCHEM_MMFF94_ENERGY>
20.3573

> <PUBCHEM_FEATURE_SELFOVERLAP>
35.52

> <PUBCHEM_SHAPE_FINGERPRINT>
137420 1 14610310153653246111
20653091 64 18189596333224854907
21040471 1 17831290601889961384
23552449 11 18408037425022563635
24536 1 16082744046723946803
29004967 10 18116719705813493034
5943 1 13756695414936226141

> <PUBCHEM_SHAPE_MULTIPOLES>
147.03
2.03
1.66
1.15
0.82
0.05
0.39
-0.34
-0.48
-0.94
-0.21
0.12
0.28
0.26

> <PUBCHEM_SHAPE_SELFOVERLAP>
267.918

> <PUBCHEM_SHAPE_VOLUME>
93.7

> <PUBCHEM_COORDINATE_TYPE>
2
5
10

$$$$

