9141
  -OEChem-06261203272D

 35 39  0     0  0  0  0  0  0999 V2000
    5.5440    1.8484    0.0000 N   0  0  0  0  0  0  0  0  0  0  0  0
    3.7841   -0.1863    0.0000 C   0  0  0  0  0  0  0  0  0  0  0  0
    2.9180    0.3137    0.0000 C   0  0  0  0  0  0  0  0  0  0  0  0
    4.6501    0.3137    0.0000 C   0  0  0  0  0  0  0  0  0  0  0  0
    2.9180    1.3137    0.0000 C   0  0  0  0  0  0  0  0  0  0  0  0
    3.8001   -1.2278    0.0000 C   0  0  0  0  0  0  0  0  0  0  0  0
    3.7841    1.8137    0.0000 C   0  0  0  0  0  0  0  0  0  0  0  0
    4.6501    1.3137    0.0000 C   0  0  0  0  0  0  0  0  0  0  0  0
    2.9021   -1.7555    0.0000 C   0  0  0  0  0  0  0  0  0  0  0  0
    2.0080   -0.1931    0.0000 C   0  0  0  0  0  0  0  0  0  0  0  0
    2.0000   -1.2347    0.0000 C   0  0  0  0  0  0  0  0  0  0  0  0
    2.0080    1.8206    0.0000 C   0  0  0  0  0  0  0  0  0  0  0  0
    5.5440   -0.2209    0.0000 C   0  0  0  0  0  0  0  0  0  0  0  0
    3.8001    2.8552    0.0000 C   0  0  0  0  0  0  0  0  0  0  0  0
    4.7520   -1.7484    0.0000 C   0  0  0  0  0  0  0  0  0  0  0  0
    2.8937   -2.8405    0.0000 C   0  0  0  0  0  0  0  0  0  0  0  0
    2.0000    2.8622    0.0000 C   0  0  0  0  0  0  0  0  0  0  0  0
    2.9021    3.3830    0.0000 C   0  0  0  0  0  0  0  0  0  0  0  0
    4.7688   -2.8333    0.0000 C   0  0  0  0  0  0  0  0  0  0  0  0
    6.4501    0.2929    0.0000 C   0  0  0  0  0  0  0  0  0  0  0  0
    3.8334   -3.3830    0.0000 C   0  0  0  0  0  0  0  0  0  0  0  0
    6.4501    1.3345    0.0000 C   0  0  0  0  0  0  0  0  0  0  0  0
    1.4747    0.1231    0.0000 H   0  0  0  0  0  0  0  0  0  0  0  0
    1.4619   -1.5426    0.0000 H   0  0  0  0  0  0  0  0  0  0  0  0
    1.4747    1.5044    0.0000 H   0  0  0  0  0  0  0  0  0  0  0  0
    5.5368   -0.8409    0.0000 H   0  0  0  0  0  0  0  0  0  0  0  0
    4.3406    3.1590    0.0000 H   0  0  0  0  0  0  0  0  0  0  0  0
    5.2829   -1.4281    0.0000 H   0  0  0  0  0  0  0  0  0  0  0  0
    2.3556   -3.1484    0.0000 H   0  0  0  0  0  0  0  0  0  0  0  0
    1.4619    3.1701    0.0000 H   0  0  0  0  0  0  0  0  0  0  0  0
    2.9045    4.0030    0.0000 H   0  0  0  0  0  0  0  0  0  0  0  0
    5.3093   -3.1370    0.0000 H   0  0  0  0  0  0  0  0  0  0  0  0
    6.9858   -0.0192    0.0000 H   0  0  0  0  0  0  0  0  0  0  0  0
    3.8357   -4.0030    0.0000 H   0  0  0  0  0  0  0  0  0  0  0  0
    6.9858    1.6466    0.0000 H   0  0  0  0  0  0  0  0  0  0  0  0
  1  8  1  0  0  0  0
  1 22  2  0  0  0  0
  2  3  2  0  0  0  0
  2  4  1  0  0  0  0
  2  6  1  0  0  0  0
  3  5  1  0  0  0  0
  3 10  1  0  0  0  0
  4  8  2  0  0  0  0
  4 13  1  0  0  0  0
  5  7  1  0  0  0  0
  5 12  2  0  0  0  0
  6  9  1  0  0  0  0
  6 15  2  0  0  0  0
  7  8  1  0  0  0  0
  7 14  2  0  0  0  0
  9 11  1  0  0  0  0
  9 16  2  0  0  0  0
 10 11  2  0  0  0  0
 10 23  1  0  0  0  0
 11 24  1  0  0  0  0
 12 17  1  0  0  0  0
 12 25  1  0  0  0  0
 13 20  2  0  0  0  0
 13 26  1  0  0  0  0
 14 18  1  0  0  0  0
 14 27  1  0  0  0  0
 15 19  1  0  0  0  0
 15 28  1  0  0  0  0
 16 21  1  0  0  0  0
 16 29  1  0  0  0  0
 17 18  2  0  0  0  0
 17 30  1  0  0  0  0
 18 31  1  0  0  0  0
 19 21  2  0  0  0  0
 19 32  1  0  0  0  0
 20 22  1  0  0  0  0
 20 33  1  0  0  0  0
 21 34  1  0  0  0  0
 22 35  1  0  0  0  0
M  END
> <PUBCHEM_COMPOUND_CID>
9141

> <PUBCHEM_COMPOUND_CANONICALIZED>
1

> <PUBCHEM_CACTVS_COMPLEXITY>
405

> <PUBCHEM_CACTVS_HBOND_ACCEPTOR>
1

> <PUBCHEM_CACTVS_HBOND_DONOR>
0

> <PUBCHEM_CACTVS_ROTATABLE_BOND>
0

> <PUBCHEM_CACTVS_SUBSKEYS>
AAADccB6AAAAAAAAAAAAAAAAAAAAAAAAAAA8YMGCAAAAAADx9AAAHAAAAAAADAjBHgQ8wPIIEACgAzRnRACCgCAxAiAI2CA4ZJgIIOLAkZGEIAhggADIyAcQgMAOyAACQAASAACQAASAACQAAAAAAAAAAA==

> <PUBCHEM_IUPAC_INCHI>
InChI=1S/C21H13N/c1-2-7-15-14(6-1)11-12-17-16-8-3-4-9-18(16)21-19(20(15)17)10-5-13-22-21/h1-13H

> <PUBCHEM_IUPAC_INCHIKEY>
ASOZIQLEGCCDBT-UHFFFAOYSA-N

> <PUBCHEM_XLOGP3_AA>
5.9

> <PUBCHEM_EXACT_MASS>
279.104799

> <PUBCHEM_MOLECULAR_FORMULA>
C21H13N

> <PUBCHEM_MOLECULAR_WEIGHT>
279.33462

> <PUBCHEM_OPENEYE_CAN_SMILES>
C1=CC=C2C(=C1)C=CC3=C2C4=C(C5=CC=CC=C35)N=CC=C4

> <PUBCHEM_OPENEYE_ISO_SMILES>
C1=CC=C2C(=C1)C=CC3=C2C4=C(C5=CC=CC=C35)N=CC=C4

> <PUBCHEM_CACTVS_TPSA>
12.9

> <PUBCHEM_MONOISOTOPIC_WEIGHT>
279.104799

> <PUBCHEM_TOTAL_CHARGE>
0

> <PUBCHEM_HEAVY_ATOM_COUNT>
22

> <PUBCHEM_ATOM_DEF_STEREO_COUNT>
0

> <PUBCHEM_ATOM_UDEF_STEREO_COUNT>
0

> <PUBCHEM_BOND_DEF_STEREO_COUNT>
0

> <PUBCHEM_BOND_UDEF_STEREO_COUNT>
0

> <PUBCHEM_ISOTOPIC_ATOM_COUNT>
0

> <PUBCHEM_COMPONENT_COUNT>
1

> <PUBCHEM_CACTVS_TAUTO_COUNT>
1

> <PUBCHEM_COORDINATE_TYPE>
1
5
255

> <PUBCHEM_BONDANNOTATIONS>
1  22  8
1  8  8
10  11  8
12  17  8
13  20  8
14  18  8
15  19  8
16  21  8
17  18  8
19  21  8
2  3  8
2  4  8
2  6  8
20  22  8
3  10  8
3  5  8
4  13  8
4  8  8
5  12  8
5  7  8
6  15  8
6  9  8
7  14  8
7  8  8
9  11  8
9  16  8

$$$$

