14406
  -OEChem-06241222432D

 46 47  0     1  0  0  0  0  0999 V2000
    1.6423    1.7650    0.0000 Cl  0  0  0  0  0  0  0  0  0  0  0  0
    5.8592    7.0527    0.0000 Cl  0  0  0  0  0  0  0  0  0  0  0  0
    0.0000    4.1499    0.0000 Cl  0  5  0  0  0  0  0  0  0  0  0  0
    1.8260    6.5833    0.0000 S   0  0  0  0  0  0  0  0  0  0  0  0
    4.4925    1.6019    0.0000 N   0  3  0  0  0  0  0  0  0  0  0  0
    3.2270    4.8265    0.0000 C   0  0  3  0  0  0  0  0  0  0  0  0
    4.0088    4.2031    0.0000 C   0  0  0  0  0  0  0  0  0  0  0  0
    3.8598    3.2142    0.0000 C   0  0  0  0  0  0  0  0  0  0  0  0
    4.6416    2.5907    0.0000 C   0  0  0  0  0  0  0  0  0  0  0  0
    2.3260    4.3927    0.0000 C   0  0  0  0  0  0  0  0  0  0  0  0
    3.4495    5.8015    0.0000 C   0  0  0  0  0  0  0  0  0  0  0  0
    1.4250    4.8265    0.0000 C   0  0  0  0  0  0  0  0  0  0  0  0
    2.8260    6.5833    0.0000 C   0  0  0  0  0  0  0  0  0  0  0  0
    1.2025    5.8015    0.0000 C   0  0  0  0  0  0  0  0  0  0  0  0
    2.4198    3.3553    0.0000 C   0  0  0  0  0  0  0  0  0  0  0  0
    4.4818    5.9408    0.0000 C   0  0  0  0  0  0  0  0  0  0  0  0
    4.3435    0.6131    0.0000 C   0  0  0  0  0  0  0  0  0  0  0  0
    5.4814    1.4529    0.0000 C   0  0  0  0  0  0  0  0  0  0  0  0
    0.5555    4.2531    0.0000 C   0  0  0  0  0  0  0  0  0  0  0  0
    3.1916    7.5587    0.0000 C   0  0  0  0  0  0  0  0  0  0  0  0
    1.5638    2.7619    0.0000 C   0  0  0  0  0  0  0  0  0  0  0  0
    4.8698    6.9075    0.0000 C   0  0  0  0  0  0  0  0  0  0  0  0
    0.6253    3.2138    0.0000 C   0  0  0  0  0  0  0  0  0  0  0  0
    4.2203    7.7219    0.0000 C   0  0  0  0  0  0  0  0  0  0  0  0
    3.8122    5.0313    0.0000 H   0  0  0  0  0  0  0  0  0  0  0  0
    4.5965    4.0056    0.0000 H   0  0  0  0  0  0  0  0  0  0  0  0
    4.3053    4.7476    0.0000 H   0  0  0  0  0  0  0  0  0  0  0  0
    3.2720    3.4117    0.0000 H   0  0  0  0  0  0  0  0  0  0  0  0
    3.5632    2.6697    0.0000 H   0  0  0  0  0  0  0  0  0  0  0  0
    5.2293    2.3933    0.0000 H   0  0  0  0  0  0  0  0  0  0  0  0
    4.9381    3.1352    0.0000 H   0  0  0  0  0  0  0  0  0  0  0  0
    3.8795    1.6943    0.0000 H   0  0  0  0  0  0  0  0  0  0  0  0
    0.8159    6.2862    0.0000 H   0  0  0  0  0  0  0  0  0  0  0  0
    0.6439    5.5325    0.0000 H   0  0  0  0  0  0  0  0  0  0  0  0
    2.9815    3.0927    0.0000 H   0  0  0  0  0  0  0  0  0  0  0  0
    4.8627    5.4517    0.0000 H   0  0  0  0  0  0  0  0  0  0  0  0
    3.7304    0.7055    0.0000 H   0  0  0  0  0  0  0  0  0  0  0  0
    4.2511    0.0000    0.0000 H   0  0  0  0  0  0  0  0  0  0  0  0
    4.9566    0.5207    0.0000 H   0  0  0  0  0  0  0  0  0  0  0  0
    5.3890    0.8398    0.0000 H   0  0  0  0  0  0  0  0  0  0  0  0
    6.0945    1.3605    0.0000 H   0  0  0  0  0  0  0  0  0  0  0  0
    5.5738    2.0659    0.0000 H   0  0  0  0  0  0  0  0  0  0  0  0
    0.0000    4.5286    0.0000 H   0  0  0  0  0  0  0  0  0  0  0  0
    2.7994    8.0389    0.0000 H   0  0  0  0  0  0  0  0  0  0  0  0
    0.1117    2.8665    0.0000 H   0  0  0  0  0  0  0  0  0  0  0  0
    4.4446    8.2999    0.0000 H   0  0  0  0  0  0  0  0  0  0  0  0
  1 21  1  0  0  0  0
  2 22  1  0  0  0  0
  4 13  1  0  0  0  0
  4 14  1  0  0  0  0
  5  9  1  0  0  0  0
  5 17  1  0  0  0  0
  5 18  1  0  0  0  0
  5 32  1  0  0  0  0
  6  7  1  0  0  0  0
  6 10  1  0  0  0  0
  6 11  1  0  0  0  0
  6 25  1  0  0  0  0
  7  8  1  0  0  0  0
  7 26  1  0  0  0  0
  7 27  1  0  0  0  0
  8  9  1  0  0  0  0
  8 28  1  0  0  0  0
  8 29  1  0  0  0  0
  9 30  1  0  0  0  0
  9 31  1  0  0  0  0
 10 12  2  0  0  0  0
 10 15  1  0  0  0  0
 11 13  2  0  0  0  0
 11 16  1  0  0  0  0
 12 14  1  0  0  0  0
 12 19  1  0  0  0  0
 13 20  1  0  0  0  0
 14 33  1  0  0  0  0
 14 34  1  0  0  0  0
 15 21  2  0  0  0  0
 15 35  1  0  0  0  0
 16 22  2  0  0  0  0
 16 36  1  0  0  0  0
 17 37  1  0  0  0  0
 17 38  1  0  0  0  0
 17 39  1  0  0  0  0
 18 40  1  0  0  0  0
 18 41  1  0  0  0  0
 18 42  1  0  0  0  0
 19 23  2  0  0  0  0
 19 43  1  0  0  0  0
 20 24  2  0  0  0  0
 20 44  1  0  0  0  0
 21 23  1  0  0  0  0
 22 24  1  0  0  0  0
 23 45  1  0  0  0  0
 24 46  1  0  0  0  0
M  CHG  2   3  -1   5   1
M  END
> <PUBCHEM_COMPOUND_CID>
14406

> <PUBCHEM_COMPOUND_CANONICALIZED>
1

> <PUBCHEM_CACTVS_COMPLEXITY>
378

> <PUBCHEM_CACTVS_HBOND_ACCEPTOR>
2

> <PUBCHEM_CACTVS_HBOND_DONOR>
1

> <PUBCHEM_CACTVS_ROTATABLE_BOND>
4

> <PUBCHEM_CACTVS_SUBSKEYS>
AAADceB6AABGAAAAAAAAAAAAAAAAAAAAAAAwYAAABIAAAAABQAAAHAYQAAAADQLFWCSyAYPAAAiAAiBCAAACAAAgDRAIiJgIAogIICKhkxCEIAAgkAAoiAcQgMAOhAIAIAAUAAAIBABAACgAAAAAAAAAAA==

> <PUBCHEM_IUPAC_OPENEYE_NAME>
3-(2,9-dichloro-6,11-dihydrobenzo[c][1]benzothiepin-11-yl)propyl-dimethyl-ammonium chloride

> <PUBCHEM_IUPAC_CAS_NAME>
3-(2,9-dichloro-6,11-dihydrobenzo[c][1]benzothiepin-11-yl)propyl-dimethylammonium chloride

> <PUBCHEM_IUPAC_NAME>
3-(2,9-dichloro-6,11-dihydrobenzo[c][1]benzothiepin-11-yl)propyl-dimethylazanium chloride

> <PUBCHEM_IUPAC_SYSTEMATIC_NAME>
3-[2,9-bis(chloranyl)-6,11-dihydrobenzo[c][1]benzothiepin-11-yl]propyl-dimethyl-azanium chloride

> <PUBCHEM_IUPAC_TRADITIONAL_NAME>
3-(2,9-dichloro-6,11-dihydrobenzo[c][1]benzothiepin-11-yl)propyl-dimethyl-ammonium chloride

> <PUBCHEM_IUPAC_INCHI>
InChI=1S/C19H21Cl2NS.ClH/c1-22(2)9-3-4-16-17-10-14(20)6-5-13(17)12-23-19-8-7-15(21)11-18(16)19;/h5-8,10-11,16H,3-4,9,12H2,1-2H3;1H

> <PUBCHEM_IUPAC_INCHIKEY>
VQOCEUIQACGOGH-UHFFFAOYSA-N

> <PUBCHEM_EXACT_MASS>
401.053854

> <PUBCHEM_MOLECULAR_FORMULA>
C19H22Cl3NS

> <PUBCHEM_MOLECULAR_WEIGHT>
402.80868

> <PUBCHEM_OPENEYE_CAN_SMILES>
C[NH+](C)CCCC1C2=C(CSC3=C1C=C(C=C3)Cl)C=CC(=C2)Cl.[Cl-]

> <PUBCHEM_OPENEYE_ISO_SMILES>
C[NH+](C)CCCC1C2=C(CSC3=C1C=C(C=C3)Cl)C=CC(=C2)Cl.[Cl-]

> <PUBCHEM_CACTVS_TPSA>
29.7

> <PUBCHEM_MONOISOTOPIC_WEIGHT>
401.053854

> <PUBCHEM_TOTAL_CHARGE>
0

> <PUBCHEM_HEAVY_ATOM_COUNT>
24

> <PUBCHEM_ATOM_DEF_STEREO_COUNT>
0

> <PUBCHEM_ATOM_UDEF_STEREO_COUNT>
1

> <PUBCHEM_BOND_DEF_STEREO_COUNT>
0

> <PUBCHEM_BOND_UDEF_STEREO_COUNT>
0

> <PUBCHEM_ISOTOPIC_ATOM_COUNT>
0

> <PUBCHEM_COMPONENT_COUNT>
2

> <PUBCHEM_CACTVS_TAUTO_COUNT>
1

> <PUBCHEM_COORDINATE_TYPE>
1
5
255

> <PUBCHEM_BONDANNOTATIONS>
10  12  8
10  15  8
11  13  8
11  16  8
12  19  8
13  20  8
15  21  8
16  22  8
19  23  8
20  24  8
21  23  8
22  24  8
6  7  3

$$$$

