13436
  -OEChem-06261214123D

 24 25  0     0  0  0  0  0  0999 V2000
   -0.5561   -1.8321   -0.9736 S   0  0  0  0  0  0  0  0  0  0  0  0
    0.6263   -1.9295    0.7083 S   0  0  0  0  0  0  0  0  0  0  0  0
   -1.7969   -0.6531   -0.4762 C   0  0  0  0  0  0  0  0  0  0  0  0
    1.8215   -0.6458    0.3842 C   0  0  0  0  0  0  0  0  0  0  0  0
   -2.6070   -0.9168    0.6283 C   0  0  0  0  0  0  0  0  0  0  0  0
    1.5735    0.6595    0.8066 C   0  0  0  0  0  0  0  0  0  0  0  0
   -1.9574    0.5336   -1.1913 C   0  0  0  0  0  0  0  0  0  0  0  0
    3.0029   -0.9494   -0.2911 C   0  0  0  0  0  0  0  0  0  0  0  0
   -3.5777    0.0062    1.0176 C   0  0  0  0  0  0  0  0  0  0  0  0
    2.5085    1.6631    0.5533 C   0  0  0  0  0  0  0  0  0  0  0  0
   -2.9280    1.4567   -0.8020 C   0  0  0  0  0  0  0  0  0  0  0  0
    3.9380    0.0542   -0.5443 C   0  0  0  0  0  0  0  0  0  0  0  0
   -3.7382    1.1929    0.3024 C   0  0  0  0  0  0  0  0  0  0  0  0
    3.6907    1.3605   -0.1222 C   0  0  0  0  0  0  0  0  0  0  0  0
   -2.5088   -1.8388    1.1959 H   0  0  0  0  0  0  0  0  0  0  0  0
    0.6586    0.9148    1.3356 H   0  0  0  0  0  0  0  0  0  0  0  0
   -1.3344    0.7571   -2.0539 H   0  0  0  0  0  0  0  0  0  0  0  0
    3.2133   -1.9616   -0.6277 H   0  0  0  0  0  0  0  0  0  0  0  0
   -4.2101   -0.1999    1.8762 H   0  0  0  0  0  0  0  0  0  0  0  0
    2.3161    2.6802    0.8821 H   0  0  0  0  0  0  0  0  0  0  0  0
   -3.0527    2.3811   -1.3584 H   0  0  0  0  0  0  0  0  0  0  0  0
    4.8586   -0.1812   -1.0702 H   0  0  0  0  0  0  0  0  0  0  0  0
   -4.4942    1.9115    0.6053 H   0  0  0  0  0  0  0  0  0  0  0  0
    4.4188    2.1419   -0.3194 H   0  0  0  0  0  0  0  0  0  0  0  0
  1  2  1  0  0  0  0
  1  3  1  0  0  0  0
  2  4  1  0  0  0  0
  3  5  2  0  0  0  0
  3  7  1  0  0  0  0
  4  6  2  0  0  0  0
  4  8  1  0  0  0  0
  5  9  1  0  0  0  0
  5 15  1  0  0  0  0
  6 10  1  0  0  0  0
  6 16  1  0  0  0  0
  7 11  2  0  0  0  0
  7 17  1  0  0  0  0
  8 12  2  0  0  0  0
  8 18  1  0  0  0  0
  9 13  2  0  0  0  0
  9 19  1  0  0  0  0
 10 14  2  0  0  0  0
 10 20  1  0  0  0  0
 11 13  1  0  0  0  0
 11 21  1  0  0  0  0
 12 14  1  0  0  0  0
 12 22  1  0  0  0  0
 13 23  1  0  0  0  0
 14 24  1  0  0  0  0
M  END
> <PUBCHEM_COMPOUND_CID>
13436

> <PUBCHEM_CONFORMER_RMSD>
0.6

> <PUBCHEM_CONFORMER_DIVERSEORDER>
1
23
15
4
18
3
24
17
21
6
22
16
27
5
26
25
2
9
8
11
10
12
7
19
20
13
14

> <PUBCHEM_MMFF94_PARTIAL_CHARGES>
24
1 -0.1
10 -0.15
11 -0.15
12 -0.15
13 -0.15
14 -0.15
15 0.15
16 0.15
17 0.15
18 0.15
19 0.15
2 -0.1
20 0.15
21 0.15
22 0.15
23 0.15
24 0.15
3 0.1
4 0.1
5 -0.15
6 -0.15
7 -0.15
8 -0.15
9 -0.15

> <PUBCHEM_EFFECTIVE_ROTOR_COUNT>
3

> <PUBCHEM_PHARMACOPHORE_FEATURES>
2
6 3 5 7 9 11 13 rings
6 4 6 8 10 12 14 rings

> <PUBCHEM_HEAVY_ATOM_COUNT>
14

> <PUBCHEM_ATOM_DEF_STEREO_COUNT>
0

> <PUBCHEM_ATOM_UDEF_STEREO_COUNT>
0

> <PUBCHEM_BOND_DEF_STEREO_COUNT>
0

> <PUBCHEM_BOND_UDEF_STEREO_COUNT>
0

> <PUBCHEM_ISOTOPIC_ATOM_COUNT>
0

> <PUBCHEM_COMPONENT_COUNT>
1

> <PUBCHEM_CACTVS_TAUTO_COUNT>
1

> <PUBCHEM_CONFORMER_ID>
0000347C00000001

> <PUBCHEM_MMFF94_ENERGY>
24.5617

> <PUBCHEM_FEATURE_SELFOVERLAP>
10.149

> <PUBCHEM_SHAPE_FINGERPRINT>
10366900 7 18060416906826878811
10498660 4 18271820007462570581
11137873 295 8070027787655343735
11615756 256 18342170012682214516
11715629 250 18262526866517566418
12633257 1 18057326291436769177
128993 33 18411144610227469048
13618510 140 18335988639788440905
13693222 15 12319742461820750638
13764800 53 18060421326342814905
13897977 13 18343016666895246557
14289901 80 16487253291744465929
14386348 128 18410860940554060188
15775835 57 18409729555952836119
17834072 14 8502374403812424990
18186145 218 18260545615363003002
18219364 16 18412270557632107637
201361 129 18201440341114617874
20233049 118 18410575119597921204
21524375 3 18409172090689015239
22646028 28 10087640407405207977
231179 274 18411701027640985366
23402655 69 18186796972563076280
25 1 18410009949041088218
2637199 183 18261946435799466918
27216 239 18343302531296872305
5262128 65 4822915976410739779
6442390 28 18129649816585715306
74978 22 16950855703849125432
81228 2 17764880090988164082
9882013 296 14979953657729948630

> <PUBCHEM_SHAPE_MULTIPOLES>
295.81
7.6
2.01
1.12
0.68
0.26
0.07
-3.25
-0.18
0.24
0.03
-0.48
0.08
0.33

> <PUBCHEM_SHAPE_SELFOVERLAP>
599.898

> <PUBCHEM_SHAPE_VOLUME>
173

> <PUBCHEM_COORDINATE_TYPE>
2
5
10

$$$$

