17396215
  -OEChem-06241222553D

 46 49  0     0  0  0  0  0  0999 V2000
   -1.6649    0.9581    3.1977 Br  0  0  0  0  0  0  0  0  0  0  0  0
   -4.9332   -0.2414   -1.7583 O   0  0  0  0  0  0  0  0  0  0  0  0
   -6.2039    0.3846    0.7525 O   0  0  0  0  0  0  0  0  0  0  0  0
    5.4869    0.1356   -0.0486 O   0  0  0  0  0  0  0  0  0  0  0  0
   -0.2968   -0.4479   -1.9474 O   0  0  0  0  0  0  0  0  0  0  0  0
    3.4534    1.1061   -0.6083 N   0  0  0  0  0  0  0  0  0  0  0  0
    2.1043    0.9984   -0.7903 N   0  0  0  0  0  0  0  0  0  0  0  0
   -0.6532    0.1553    0.3130 N   0  0  0  0  0  0  0  0  0  0  0  0
    4.0736    2.3989   -0.8463 C   0  0  0  0  0  0  0  0  0  0  0  0
    2.2353   -1.3490   -0.1414 C   0  0  0  0  0  0  0  0  0  0  0  0
    3.6097   -1.2435    0.0384 C   0  0  0  0  0  0  0  0  0  0  0  0
    1.5354   -0.1427   -0.5794 C   0  0  0  0  0  0  0  0  0  0  0  0
    4.2711    0.0517   -0.2083 C   0  0  0  0  0  0  0  0  0  0  0  0
    4.1115    3.2641    0.4076 C   0  0  0  0  0  0  0  0  0  0  0  0
   -2.0611    0.2268    0.4327 C   0  0  0  0  0  0  0  0  0  0  0  0
   -4.2271    0.0196   -0.6132 C   0  0  0  0  0  0  0  0  0  0  0  0
    0.0680   -0.1619   -0.8183 C   0  0  0  0  0  0  0  0  0  0  0  0
   -4.8427    0.3339    0.6010 C   0  0  0  0  0  0  0  0  0  0  0  0
    1.5827   -2.5596    0.1031 C   0  0  0  0  0  0  0  0  0  0  0  0
    4.3482   -2.3555    0.4565 C   0  0  0  0  0  0  0  0  0  0  0  0
   -2.8361   -0.0490   -0.6941 C   0  0  0  0  0  0  0  0  0  0  0  0
   -6.2935    0.1881   -1.6559 C   0  0  0  0  0  0  0  0  0  0  0  0
   -6.8851   -0.2532   -0.3314 C   0  0  0  0  0  0  0  0  0  0  0  0
   -2.6754    0.5674    1.6384 C   0  0  0  0  0  0  0  0  0  0  0  0
   -4.0667    0.6228    1.7239 C   0  0  0  0  0  0  0  0  0  0  0  0
    4.7397    4.6286    0.1621 C   0  0  0  0  0  0  0  0  0  0  0  0
    2.3201   -3.6687    0.5197 C   0  0  0  0  0  0  0  0  0  0  0  0
    3.6998   -3.5675    0.6948 C   0  0  0  0  0  0  0  0  0  0  0  0
    3.5088    2.9043   -1.6391 H   0  0  0  0  0  0  0  0  0  0  0  0
    5.0918    2.2507   -1.2251 H   0  0  0  0  0  0  0  0  0  0  0  0
    4.6718    2.7493    1.1973 H   0  0  0  0  0  0  0  0  0  0  0  0
    3.0931    3.4034    0.7903 H   0  0  0  0  0  0  0  0  0  0  0  0
    0.5098   -2.6652   -0.0263 H   0  0  0  0  0  0  0  0  0  0  0  0
    5.4232   -2.2985    0.6034 H   0  0  0  0  0  0  0  0  0  0  0  0
   -2.4317   -0.3113   -1.6612 H   0  0  0  0  0  0  0  0  0  0  0  0
   -0.1349    0.3651    1.1634 H   0  0  0  0  0  0  0  0  0  0  0  0
   -6.8472   -0.2590   -2.4874 H   0  0  0  0  0  0  0  0  0  0  0  0
   -6.3260    1.2788   -1.7697 H   0  0  0  0  0  0  0  0  0  0  0  0
   -7.9408    0.0297   -0.2735 H   0  0  0  0  0  0  0  0  0  0  0  0
   -6.8140   -1.3399   -0.1989 H   0  0  0  0  0  0  0  0  0  0  0  0
   -4.5556    0.8788    2.6610 H   0  0  0  0  0  0  0  0  0  0  0  0
    4.7453    5.2157    1.0856 H   0  0  0  0  0  0  0  0  0  0  0  0
    4.1781    5.1867   -0.5937 H   0  0  0  0  0  0  0  0  0  0  0  0
    5.7733    4.5259   -0.1832 H   0  0  0  0  0  0  0  0  0  0  0  0
    1.8179   -4.6132    0.7084 H   0  0  0  0  0  0  0  0  0  0  0  0
    4.2700   -4.4331    1.0196 H   0  0  0  0  0  0  0  0  0  0  0  0
  1 24  1  0  0  0  0
  2 16  1  0  0  0  0
  2 22  1  0  0  0  0
  3 18  1  0  0  0  0
  3 23  1  0  0  0  0
  4 13  2  0  0  0  0
  5 17  2  0  0  0  0
  6  7  1  0  0  0  0
  6  9  1  0  0  0  0
  6 13  1  0  0  0  0
  7 12  2  0  0  0  0
  8 15  1  0  0  0  0
  8 17  1  0  0  0  0
  8 36  1  0  0  0  0
  9 14  1  0  0  0  0
  9 29  1  0  0  0  0
  9 30  1  0  0  0  0
 10 11  1  0  0  0  0
 10 12  1  0  0  0  0
 10 19  2  0  0  0  0
 11 13  1  0  0  0  0
 11 20  2  0  0  0  0
 12 17  1  0  0  0  0
 14 26  1  0  0  0  0
 14 31  1  0  0  0  0
 14 32  1  0  0  0  0
 15 21  2  0  0  0  0
 15 24  1  0  0  0  0
 16 18  2  0  0  0  0
 16 21  1  0  0  0  0
 18 25  1  0  0  0  0
 19 27  1  0  0  0  0
 19 33  1  0  0  0  0
 20 28  1  0  0  0  0
 20 34  1  0  0  0  0
 21 35  1  0  0  0  0
 22 23  1  0  0  0  0
 22 37  1  0  0  0  0
 22 38  1  0  0  0  0
 23 39  1  0  0  0  0
 23 40  1  0  0  0  0
 24 25  2  0  0  0  0
 25 41  1  0  0  0  0
 26 42  1  0  0  0  0
 26 43  1  0  0  0  0
 26 44  1  0  0  0  0
 27 28  2  0  0  0  0
 27 45  1  0  0  0  0
 28 46  1  0  0  0  0
M  END
> <PUBCHEM_COMPOUND_CID>
17396215

> <PUBCHEM_CONFORMER_RMSD>
0.8

> <PUBCHEM_CONFORMER_DIVERSEORDER>
1
25
18
34
22
3
8
35
31
36
21
29
33
24
20
11
28
16
32
14
7
13
19
4
17
23
10
26
30
2
9
15
27
5
12
6

> <PUBCHEM_MMFF94_PARTIAL_CHARGES>
33
1 -0.11
10 0.09
11 0.09
12 0.36
13 0.54
15 0.12
16 0.08
17 0.63
18 0.08
19 -0.15
2 -0.36
20 -0.15
21 -0.15
22 0.28
23 0.28
24 0.11
25 -0.15
27 -0.15
28 -0.15
3 -0.36
33 0.15
34 0.15
35 0.15
36 0.37
4 -0.57
41 0.15
45 0.15
46 0.15
5 -0.57
6 -0.3
7 -0.51
8 -0.55
9 0.3

> <PUBCHEM_EFFECTIVE_ROTOR_COUNT>
5.8

> <PUBCHEM_PHARMACOPHORE_FEATURES>
12
1 1 hydrophobe
1 2 acceptor
1 26 hydrophobe
1 3 acceptor
1 4 acceptor
1 5 acceptor
1 7 acceptor
1 8 donor
6 10 11 19 20 27 28 rings
6 15 16 18 21 24 25 rings
6 2 3 16 18 22 23 rings
6 6 7 10 11 12 13 rings

> <PUBCHEM_HEAVY_ATOM_COUNT>
28

> <PUBCHEM_ATOM_DEF_STEREO_COUNT>
0

> <PUBCHEM_ATOM_UDEF_STEREO_COUNT>
0

> <PUBCHEM_BOND_DEF_STEREO_COUNT>
0

> <PUBCHEM_BOND_UDEF_STEREO_COUNT>
0

> <PUBCHEM_ISOTOPIC_ATOM_COUNT>
0

> <PUBCHEM_COMPONENT_COUNT>
1

> <PUBCHEM_CACTVS_TAUTO_COUNT>
2

> <PUBCHEM_CONFORMER_ID>
010971F700000001

> <PUBCHEM_MMFF94_ENERGY>
79.6599

> <PUBCHEM_FEATURE_SELFOVERLAP>
60.96

> <PUBCHEM_SHAPE_FINGERPRINT>
10165383 225 18129936790180491436
10366900 7 18058714914519481184
10411042 1 18052261988731410862
10595046 47 18408605847244205669
10670039 82 16661188343615816288
11059845 2 16087551351784048874
11135609 127 18338531776277890741
11443803 9 17459195084632628996
11505856 67 16832043345721639844
11595378 159 17168713075273930443
12107183 9 17616527797715673065
12166972 35 18261678189543730370
12236239 1 18113900511256323567
12596602 18 18040719211623357115
12616971 3 18260826051152852279
12788726 201 17458338685053763531
13140716 1 18198064686689637426
13533116 47 18341328976312253035
13631057 29 18047474426987714503
13955234 65 18342179977259412554
14415360 78 17832717776879912812
15142526 21 18119530930003540424
15183329 4 13686290310293824167
15328829 1 18040443204456356558
17138139 8 17970653821592939103
17349148 13 18040714826867799663
17844677 252 18341330114847800037
18681886 176 16950282897431251308
19319366 153 18261118435183107406
19377110 9 17967525809774369947
1979834 28 17989203703306974164
20157964 124 18413671301080770805
20511986 3 18114757022187236897
20645477 70 18131349760399017930
21033648 29 17561368361810019661
21049683 118 18050307881463580552
21133410 230 16892026098345754066
2132832 1 18189618413367121001
21344244 78 18190477115490809440
21792961 116 5689605979099337684
22122407 14 18263347214051740793
23557571 272 15068619418066051107
23559900 14 17346309431707791839
23845131 108 18198904708872518690
244849 19 17415868965471468230
3178227 256 18272370872153110352
3633792 109 18269281317282773695
4015057 19 18271519888138095937
4098825 35 18270124638743992285
4149490 64 18343866598316928547
439807 62 18337114472200329191
474 4 18336546019712611408
495365 180 18272367543052451880
8988823 20 18343020029480287814
9961470 85 17469606213823095560

> <PUBCHEM_SHAPE_MULTIPOLES>
543.75
15.06
3.77
1.81
17.36
1.14
-1.14
3.71
2.59
-10.94
-0.79
2.59
0.53
-1.6

> <PUBCHEM_SHAPE_SELFOVERLAP>
1175.396

> <PUBCHEM_SHAPE_VOLUME>
304.2

> <PUBCHEM_COORDINATE_TYPE>
2
5
10

$$$$

