14379
  -OEChem-06241222433D

 33 34  0     0  0  0  0  0  0999 V2000
    1.5037    1.9286    0.0279 S   0  0  0  0  0  0  0  0  0  0  0  0
   -0.8382    3.7274    0.0135 S   0  0  0  0  0  0  0  0  0  0  0  0
   -1.1018    1.1193   -0.0163 N   0  0  0  0  0  0  0  0  0  0  0  0
    3.0745   -0.3321   -0.0030 C   0  0  0  0  0  0  0  0  0  0  0  0
   -3.3616    0.1727   -0.0222 C   0  0  0  0  0  0  0  0  0  0  0  0
    1.6424    0.1268   -0.0084 C   0  0  0  0  0  0  0  0  0  0  0  0
   -2.5244    1.4208   -0.0474 C   0  0  0  0  0  0  0  0  0  0  0  0
    3.7142   -0.5666    1.2071 C   0  0  0  0  0  0  0  0  0  0  0  0
    3.7396   -0.5165   -1.2083 C   0  0  0  0  0  0  0  0  0  0  0  0
   -3.7246   -0.4339   -1.2180 C   0  0  0  0  0  0  0  0  0  0  0  0
   -3.7622   -0.3602    1.1967 C   0  0  0  0  0  0  0  0  0  0  0  0
    5.0424   -0.9925    1.2123 C   0  0  0  0  0  0  0  0  0  0  0  0
    5.0677   -0.9425   -1.2030 C   0  0  0  0  0  0  0  0  0  0  0  0
   -4.5013   -1.5923   -1.1948 C   0  0  0  0  0  0  0  0  0  0  0  0
   -4.5389   -1.5186    1.2197 C   0  0  0  0  0  0  0  0  0  0  0  0
    5.7191   -1.1806    0.0073 C   0  0  0  0  0  0  0  0  0  0  0  0
   -4.9084   -2.1346    0.0239 C   0  0  0  0  0  0  0  0  0  0  0  0
   -0.2421    2.0749    0.0128 C   0  0  0  0  0  0  0  0  0  0  0  0
    1.1376   -0.2620   -0.9010 H   0  0  0  0  0  0  0  0  0  0  0  0
    1.1192   -0.2988    0.8563 H   0  0  0  0  0  0  0  0  0  0  0  0
   -2.7904    1.9806   -0.9543 H   0  0  0  0  0  0  0  0  0  0  0  0
   -2.8258    2.0289    0.8164 H   0  0  0  0  0  0  0  0  0  0  0  0
    3.1972   -0.4227    2.1518 H   0  0  0  0  0  0  0  0  0  0  0  0
    3.2425   -0.3332   -2.1568 H   0  0  0  0  0  0  0  0  0  0  0  0
   -3.4109   -0.0217   -2.1730 H   0  0  0  0  0  0  0  0  0  0  0  0
   -3.4781    0.1096    2.1342 H   0  0  0  0  0  0  0  0  0  0  0  0
    5.5497   -1.1777    2.1547 H   0  0  0  0  0  0  0  0  0  0  0  0
    5.5950   -1.0886   -2.1412 H   0  0  0  0  0  0  0  0  0  0  0  0
   -4.7884   -2.0724   -2.1258 H   0  0  0  0  0  0  0  0  0  0  0  0
   -4.8553   -1.9416    2.1687 H   0  0  0  0  0  0  0  0  0  0  0  0
    6.7534   -1.5121    0.0113 H   0  0  0  0  0  0  0  0  0  0  0  0
   -5.5128   -3.0368    0.0420 H   0  0  0  0  0  0  0  0  0  0  0  0
    0.3589    4.3310    0.0368 H   0  0  0  0  0  0  0  0  0  0  0  0
  1  6  1  0  0  0  0
  1 18  1  0  0  0  0
  2 18  1  0  0  0  0
  2 33  1  0  0  0  0
  3  7  1  0  0  0  0
  3 18  2  0  0  0  0
  4  6  1  0  0  0  0
  4  8  2  0  0  0  0
  4  9  1  0  0  0  0
  5  7  1  0  0  0  0
  5 10  2  0  0  0  0
  5 11  1  0  0  0  0
  6 19  1  0  0  0  0
  6 20  1  0  0  0  0
  7 21  1  0  0  0  0
  7 22  1  0  0  0  0
  8 12  1  0  0  0  0
  8 23  1  0  0  0  0
  9 13  2  0  0  0  0
  9 24  1  0  0  0  0
 10 14  1  0  0  0  0
 10 25  1  0  0  0  0
 11 15  2  0  0  0  0
 11 26  1  0  0  0  0
 12 16  2  0  0  0  0
 12 27  1  0  0  0  0
 13 16  1  0  0  0  0
 13 28  1  0  0  0  0
 14 17  2  0  0  0  0
 14 29  1  0  0  0  0
 15 17  1  0  0  0  0
 15 30  1  0  0  0  0
 16 31  1  0  0  0  0
 17 32  1  0  0  0  0
M  END
> <PUBCHEM_COMPOUND_CID>
14379

> <PUBCHEM_CONFORMER_RMSD>
0.6

> <PUBCHEM_CONFORMER_DIVERSEORDER>
1
84
5
71
171
168
74
31
146
112
156
135
16
96
161
32
7
107
101
85
103
100
127
87
46
69
145
62
128
102
120
59
24
106
140
93
150
167
124
15
169
132
48
36
138
58
131
125
56
123
83
6
92
141
54
117
78
164
39
35
114
98
104
68
110
90
172
154
119
142
53
126
42
170
43
121
95
65
88
57
64
116
134
105
99
17
37
55
165
151
19
136
12
11
158
22
137
63
139
82
27
79
76
115
9
13
30
155
108
163
144
91
166
70
61
60
77
4
159
122
153
26
67
152
44
160
29
21
66
147
94
34
118
14
28
41
52
33
47
8
81
50
45
20
130
10
23
97
148
49
18
149
51
111
38
25
113
86
89
157
109
129
80
2
162
3
75
72
40
73
143
133

> <PUBCHEM_MMFF94_PARTIAL_CHARGES>
29
1 -0.37
10 -0.15
11 -0.15
12 -0.15
13 -0.15
14 -0.15
15 -0.15
16 -0.15
17 -0.15
18 0.73
2 -0.32
23 0.15
24 0.15
25 0.15
26 0.15
27 0.15
28 0.15
29 0.15
3 -0.7
30 0.15
31 0.15
32 0.15
33 0.18
4 -0.14
5 -0.14
6 0.37
7 0.39
8 -0.15
9 -0.15

> <PUBCHEM_EFFECTIVE_ROTOR_COUNT>
5

> <PUBCHEM_PHARMACOPHORE_FEATURES>
3
1 3 acceptor
6 4 8 9 12 13 16 rings
6 5 10 11 14 15 17 rings

> <PUBCHEM_HEAVY_ATOM_COUNT>
18

> <PUBCHEM_ATOM_DEF_STEREO_COUNT>
0

> <PUBCHEM_ATOM_UDEF_STEREO_COUNT>
0

> <PUBCHEM_BOND_DEF_STEREO_COUNT>
0

> <PUBCHEM_BOND_UDEF_STEREO_COUNT>
0

> <PUBCHEM_ISOTOPIC_ATOM_COUNT>
0

> <PUBCHEM_COMPONENT_COUNT>
1

> <PUBCHEM_CACTVS_TAUTO_COUNT>
2

> <PUBCHEM_CONFORMER_ID>
0000382B00000001

> <PUBCHEM_MMFF94_ENERGY>
48.1114

> <PUBCHEM_FEATURE_SELFOVERLAP>
15.223

> <PUBCHEM_SHAPE_FINGERPRINT>
10968037 57 18333729092402230487
11046707 91 18411419535410766781
11056379 131 18266170824209440092
11370993 144 16371276861128649093
12363563 72 18411976945040901649
12553582 1 18411980265050563139
12633257 1 15213302984860169447
12892183 10 15863784010764677909
13533116 47 18048311151378484091
13583140 156 15285643243406780049
13887833 79 15554456205520390215
14123255 352 8502654796394047595
1420 369 18335139765303747831
14251732 14 18335966633072063260
14251740 57 18188490155649547162
14848178 96 9871477516627409140
14950920 106 15791737398974372514
15188451 53 17023474049598279279
15352361 1 18410857650693468507
15537594 2 18270674376423248667
15880784 105 17676490518660726803
17539 30 18269562791811845229
17780758 139 17676483977746996193
1813 80 18334005073583266725
18222031 100 18334861593009078020
18927931 339 18336825389485414710
193927 3 18409162195220865709
19784866 34 10087653593456012261
20281389 69 8358252640558519942
20374829 77 18412829092454094089
20403669 9 18410291393831728039
20621476 21 17968645138402465782
20645477 56 10303517442466670645
20693207 138 17702389459866989021
21054139 6 17988641939471290906
23402539 116 18272369814805249944
23559900 14 18270972232780005997
270888 7 9367077653034878991
2838139 119 11600012024429688542
3004659 81 18131633374274268708
312425 54 17095234839246353595
312425 83 14907359579406614491
314173 85 18333449858892254001
329604 57 18272082782315016204
351380 3 18413385436500082843
3737641 26 17750783527660830118
38570 142 14347219798071152978
4028521 119 12031784777384868924
5104073 3 18334015003695608496
5486654 36 18342163459073720233
559249 180 18409168840342439557
7495541 125 18113343042197961552
7970288 3 18410575059094664151
8863177 126 17914322490853539203
9981440 41 8430320138859871101

> <PUBCHEM_SHAPE_MULTIPOLES>
373.15
13.8
2.93
1.27
5.9
3.17
0
-12.23
0.05
-2.21
0.01
0.08
-0.56
-0.03

> <PUBCHEM_SHAPE_SELFOVERLAP>
758.913

> <PUBCHEM_SHAPE_VOLUME>
217.8

> <PUBCHEM_COORDINATE_TYPE>
2
5
10

$$$$

