7079
  -OEChem-06261201443D

 35 36  0     0  0  0  0  0  0999 V2000
    2.7830   -2.2144   -0.3997 O   0  0  0  0  0  0  0  0  0  0  0  0
   -1.4218    0.9681   -1.3449 O   0  0  0  0  0  0  0  0  0  0  0  0
    0.6781    2.2428    0.8754 O   0  0  0  0  0  0  0  0  0  0  0  0
    1.2807    0.0292    0.3689 N   0  0  0  0  0  0  0  0  0  0  0  0
   -0.9958    0.5456    0.9811 C   0  0  0  0  0  0  0  0  0  0  0  0
    2.6611    0.1345    0.0729 C   0  0  0  0  0  0  0  0  0  0  0  0
   -1.8976    0.5729   -0.2611 C   0  0  0  0  0  0  0  0  0  0  0  0
   -3.2818    0.1374   -0.1671 C   0  0  0  0  0  0  0  0  0  0  0  0
    0.4184    1.0491    0.7491 C   0  0  0  0  0  0  0  0  0  0  0  0
    3.3759   -0.9906   -0.3046 C   0  0  0  0  0  0  0  0  0  0  0  0
    3.2687    1.3762    0.1688 C   0  0  0  0  0  0  0  0  0  0  0  0
    4.7352   -0.8711   -0.5938 C   0  0  0  0  0  0  0  0  0  0  0  0
   -3.7923   -0.3062    1.0530 C   0  0  0  0  0  0  0  0  0  0  0  0
   -4.0990    0.1628   -1.2971 C   0  0  0  0  0  0  0  0  0  0  0  0
    4.6281    1.4956   -0.1204 C   0  0  0  0  0  0  0  0  0  0  0  0
    5.3614    0.3721   -0.5017 C   0  0  0  0  0  0  0  0  0  0  0  0
   -5.1201   -0.7243    1.1429 C   0  0  0  0  0  0  0  0  0  0  0  0
   -5.4267   -0.2552   -1.2072 C   0  0  0  0  0  0  0  0  0  0  0  0
   -5.9372   -0.6989    0.0129 C   0  0  0  0  0  0  0  0  0  0  0  0
    2.7818   -3.0258    0.7727 C   0  0  0  0  0  0  0  0  0  0  0  0
   -1.4379    1.1861    1.7532 H   0  0  0  0  0  0  0  0  0  0  0  0
   -0.9488   -0.4805    1.3634 H   0  0  0  0  0  0  0  0  0  0  0  0
    0.8927   -0.9071    0.2785 H   0  0  0  0  0  0  0  0  0  0  0  0
    2.7779    2.2924    0.4600 H   0  0  0  0  0  0  0  0  0  0  0  0
    5.3129   -1.7418   -0.8921 H   0  0  0  0  0  0  0  0  0  0  0  0
   -3.1941   -0.3430    1.9578 H   0  0  0  0  0  0  0  0  0  0  0  0
   -3.7252    0.5040   -2.2588 H   0  0  0  0  0  0  0  0  0  0  0  0
    5.1173    2.4628   -0.0480 H   0  0  0  0  0  0  0  0  0  0  0  0
    6.4198    0.4651   -0.7268 H   0  0  0  0  0  0  0  0  0  0  0  0
   -5.5182   -1.0698    2.0926 H   0  0  0  0  0  0  0  0  0  0  0  0
   -6.0633   -0.2354   -2.0869 H   0  0  0  0  0  0  0  0  0  0  0  0
   -6.9710   -1.0244    0.0827 H   0  0  0  0  0  0  0  0  0  0  0  0
    2.2369   -3.9474    0.5507 H   0  0  0  0  0  0  0  0  0  0  0  0
    2.2809   -2.5148    1.6010 H   0  0  0  0  0  0  0  0  0  0  0  0
    3.8063   -3.2855    1.0577 H   0  0  0  0  0  0  0  0  0  0  0  0
  1 10  1  0  0  0  0
  1 20  1  0  0  0  0
  2  7  2  0  0  0  0
  3  9  2  0  0  0  0
  4  6  1  0  0  0  0
  4  9  1  0  0  0  0
  4 23  1  0  0  0  0
  5  7  1  0  0  0  0
  5  9  1  0  0  0  0
  5 21  1  0  0  0  0
  5 22  1  0  0  0  0
  6 10  1  0  0  0  0
  6 11  2  0  0  0  0
  7  8  1  0  0  0  0
  8 13  2  0  0  0  0
  8 14  1  0  0  0  0
 10 12  2  0  0  0  0
 11 15  1  0  0  0  0
 11 24  1  0  0  0  0
 12 16  1  0  0  0  0
 12 25  1  0  0  0  0
 13 17  1  0  0  0  0
 13 26  1  0  0  0  0
 14 18  2  0  0  0  0
 14 27  1  0  0  0  0
 15 16  2  0  0  0  0
 15 28  1  0  0  0  0
 16 29  1  0  0  0  0
 17 19  2  0  0  0  0
 17 30  1  0  0  0  0
 18 19  1  0  0  0  0
 18 31  1  0  0  0  0
 19 32  1  0  0  0  0
 20 33  1  0  0  0  0
 20 34  1  0  0  0  0
 20 35  1  0  0  0  0
M  END
> <PUBCHEM_COMPOUND_CID>
7079

> <PUBCHEM_CONFORMER_RMSD>
0.8

> <PUBCHEM_CONFORMER_DIVERSEORDER>
1
123
90
6
84
111
125
118
83
122
17
29
45
99
95
55
46
74
110
49
87
127
14
44
93
9
92
38
3
126
39
5
115
16
91
121
103
70
36
19
58
78
57
25
37
113
96
26
108
47
11
33
64
10
80
86
109
67
50
97
27
28
51
102
101
13
54
88
106
23
79
77
120
124
104
53
42
82
65
68
8
31
66
119
32
75
69
61
73
34
105
98
81
116
89
71
60
24
48
63
107
112
62
4
59
94
52
100
21
114
22
15
56
41
35
117
72
85
20
12
2
30
76
43
7
18
40

> <PUBCHEM_MMFF94_PARTIAL_CHARGES>
30
1 -0.36
10 0.08
11 -0.15
12 -0.15
13 -0.15
14 -0.15
15 -0.15
16 -0.15
17 -0.15
18 -0.15
19 -0.15
2 -0.57
20 0.28
23 0.37
24 0.15
25 0.15
26 0.15
27 0.15
28 0.15
29 0.15
3 -0.57
30 0.15
31 0.15
32 0.15
4 -0.55
5 0.12
6 0.12
7 0.42
8 0.09
9 0.57

> <PUBCHEM_EFFECTIVE_ROTOR_COUNT>
6

> <PUBCHEM_PHARMACOPHORE_FEATURES>
7
1 1 acceptor
1 2 acceptor
1 3 acceptor
1 4 donor
1 5 anion
6 6 10 11 12 15 16 rings
6 8 13 14 17 18 19 rings

> <PUBCHEM_HEAVY_ATOM_COUNT>
20

> <PUBCHEM_ATOM_DEF_STEREO_COUNT>
0

> <PUBCHEM_ATOM_UDEF_STEREO_COUNT>
0

> <PUBCHEM_BOND_DEF_STEREO_COUNT>
0

> <PUBCHEM_BOND_UDEF_STEREO_COUNT>
0

> <PUBCHEM_ISOTOPIC_ATOM_COUNT>
0

> <PUBCHEM_COMPONENT_COUNT>
1

> <PUBCHEM_CACTVS_TAUTO_COUNT>
5

> <PUBCHEM_CONFORMER_ID>
00001BA700000001

> <PUBCHEM_MMFF94_ENERGY>
69.3182

> <PUBCHEM_FEATURE_SELFOVERLAP>
35.52

> <PUBCHEM_SHAPE_FINGERPRINT>
10447042 23 18410858780649818414
11287383 113 17846496997973302268
12107183 9 17539394840787158329
12166972 35 12679468586174800942
12236239 1 17167856452710478841
12507557 5 9007056868301803743
12516196 113 17967533454272779161
12553582 1 17676499361998181133
12596602 18 16660365848677648803
12730499 353 18343298141877251594
12788726 201 17458616861110248281
13685833 64 18340763759407351483
14386348 63 18131066022295958027
14573314 32 18202004347956833709
14576447 43 18333731347164991842
14617045 38 18412257320559095791
15183329 4 18114751538057767269
15537594 2 18259706687706576535
15961568 22 16630239200333887964
17134984 74 18338529538541991383
17492 89 18045779246113424046
17844677 252 18409443691889353317
1813 80 17822560664254840845
18222031 100 16588037809344767189
200 152 18260827111529876152
20567600 347 17275387620745160130
20645477 70 18408602595532196654
21033650 10 15481544394116385012
21267235 1 18114453535814344846
21623969 137 18410846642856241603
2215653 11 18341341037387288679
22950370 63 17822007610037379393
23402539 116 7204773675114136025
235170 7 17703514379999315495
23557571 272 17418096537448502301
23559900 14 18270403780952262825
23596394 208 18131075969118494579
239999 70 18334008394162536310
2767999 5 12895073998486755047
2871803 45 18410008858245657744
3004659 81 18343303708112811938
314194 84 18186238424618843427
33824 294 18411981369310929754
345986 75 17749956673230312195
3472631 163 15267050416361763982
34797466 226 17203600476455089399
351380 180 9007059054308281983
351380 3 17675926495244861351
4340502 62 18410860928323221154
46194498 28 17845934026634956293
465052 167 17676202438192860253
573450 72 16226046678816968921
8509985 295 10159696880968439734

> <PUBCHEM_SHAPE_MULTIPOLES>
389
14.12
1.97
1.16
7.78
1.2
-0.07
2.5
-2.43
-2.92
0.42
1.17
-0.04
0.39

> <PUBCHEM_SHAPE_SELFOVERLAP>
827.397

> <PUBCHEM_SHAPE_VOLUME>
215.8

> <PUBCHEM_COORDINATE_TYPE>
2
5
10

$$$$

