14365
  -OEChem-06241222432D

 21 21  0     0  0  0  0  0  0999 V2000
    5.4641    2.6830    0.0000 Cl  0  0  0  0  0  0  0  0  0  0  0  0
    7.1962   -2.3170    0.0000 Cl  0  0  0  0  0  0  0  0  0  0  0  0
    6.8301   -0.9510    0.0000 Cl  0  0  0  0  0  0  0  0  0  0  0  0
    5.8301   -2.6830    0.0000 Cl  0  0  0  0  0  0  0  0  0  0  0  0
    2.0000   -2.3170    0.0000 Cl  0  0  0  0  0  0  0  0  0  0  0  0
    2.3660   -0.9510    0.0000 Cl  0  0  0  0  0  0  0  0  0  0  0  0
    3.3660   -2.6830    0.0000 Cl  0  0  0  0  0  0  0  0  0  0  0  0
    3.7320   -0.3170    0.0000 N   0  0  0  0  0  0  0  0  0  0  0  0
    5.4641   -0.3170    0.0000 N   0  0  0  0  0  0  0  0  0  0  0  0
    4.5981   -1.8170    0.0000 N   0  0  0  0  0  0  0  0  0  0  0  0
    4.5981    1.1830    0.0000 C   0  0  0  0  0  0  0  0  0  0  0  0
    4.5981    0.1830    0.0000 C   0  0  0  0  0  0  0  0  0  0  0  0
    3.7320   -1.3170    0.0000 C   0  0  0  0  0  0  0  0  0  0  0  0
    5.4641   -1.3170    0.0000 C   0  0  0  0  0  0  0  0  0  0  0  0
    5.4641    1.6830    0.0000 C   0  0  0  0  0  0  0  0  0  0  0  0
    6.3301   -1.8170    0.0000 C   0  0  0  0  0  0  0  0  0  0  0  0
    2.8660   -1.8170    0.0000 C   0  0  0  0  0  0  0  0  0  0  0  0
    4.3860    1.7656    0.0000 H   0  0  0  0  0  0  0  0  0  0  0  0
    3.9875    1.0754    0.0000 H   0  0  0  0  0  0  0  0  0  0  0  0
    5.6762    1.1004    0.0000 H   0  0  0  0  0  0  0  0  0  0  0  0
    6.0747    1.7907    0.0000 H   0  0  0  0  0  0  0  0  0  0  0  0
  1 15  1  0  0  0  0
  2 16  1  0  0  0  0
  3 16  1  0  0  0  0
  4 16  1  0  0  0  0
  5 17  1  0  0  0  0
  6 17  1  0  0  0  0
  7 17  1  0  0  0  0
  8 12  2  0  0  0  0
  8 13  1  0  0  0  0
  9 12  1  0  0  0  0
  9 14  2  0  0  0  0
 10 13  2  0  0  0  0
 10 14  1  0  0  0  0
 11 12  1  0  0  0  0
 11 15  1  0  0  0  0
 11 18  1  0  0  0  0
 11 19  1  0  0  0  0
 13 17  1  0  0  0  0
 14 16  1  0  0  0  0
 15 20  1  0  0  0  0
 15 21  1  0  0  0  0
M  END
> <PUBCHEM_COMPOUND_CID>
14365

> <PUBCHEM_COMPOUND_CANONICALIZED>
1

> <PUBCHEM_CACTVS_COMPLEXITY>
229

> <PUBCHEM_CACTVS_HBOND_ACCEPTOR>
3

> <PUBCHEM_CACTVS_HBOND_DONOR>
0

> <PUBCHEM_CACTVS_ROTATABLE_BOND>
2

> <PUBCHEM_CACTVS_SUBSKEYS>
AAADcYBjAAAHAAAAAAAAAAAAAAAAAAAAAAAsAAAAAAAAAAABgAAAHAIAAAAACAOBA8ABEAYIEAAgAAIgJAAAgAkAAKABAAAwAgCACAAACABEAAAIAAKAAAAAAAAAAAAAAAAAAAAAAAAAAAAAAAAAAAAAAA==

> <PUBCHEM_IUPAC_OPENEYE_NAME>
2-(2-chloroethyl)-4,6-bis(trichloromethyl)-1,3,5-triazine

> <PUBCHEM_IUPAC_CAS_NAME>
2-(2-chloroethyl)-4,6-bis(trichloromethyl)-1,3,5-triazine

> <PUBCHEM_IUPAC_NAME>
2-(2-chloroethyl)-4,6-bis(trichloromethyl)-1,3,5-triazine

> <PUBCHEM_IUPAC_SYSTEMATIC_NAME>
2-(2-chloroethyl)-4,6-bis(trichloromethyl)-1,3,5-triazine

> <PUBCHEM_IUPAC_TRADITIONAL_NAME>
2-(2-chloroethyl)-4,6-bis(trichloromethyl)-s-triazine

> <PUBCHEM_IUPAC_INCHI>
InChI=1S/C7H4Cl7N3/c8-2-1-3-15-4(6(9,10)11)17-5(16-3)7(12,13)14/h1-2H2

> <PUBCHEM_IUPAC_INCHIKEY>
ZMPHZEWCSNSYJA-UHFFFAOYSA-N

> <PUBCHEM_XLOGP3_AA>
4.2

> <PUBCHEM_EXACT_MASS>
376.819541

> <PUBCHEM_MOLECULAR_FORMULA>
C7H4Cl7N3

> <PUBCHEM_MOLECULAR_WEIGHT>
378.29776

> <PUBCHEM_OPENEYE_CAN_SMILES>
C(CCl)C1=NC(=NC(=N1)C(Cl)(Cl)Cl)C(Cl)(Cl)Cl

> <PUBCHEM_OPENEYE_ISO_SMILES>
C(CCl)C1=NC(=NC(=N1)C(Cl)(Cl)Cl)C(Cl)(Cl)Cl

> <PUBCHEM_CACTVS_TPSA>
38.7

> <PUBCHEM_MONOISOTOPIC_WEIGHT>
374.822491

> <PUBCHEM_TOTAL_CHARGE>
0

> <PUBCHEM_HEAVY_ATOM_COUNT>
17

> <PUBCHEM_ATOM_DEF_STEREO_COUNT>
0

> <PUBCHEM_ATOM_UDEF_STEREO_COUNT>
0

> <PUBCHEM_BOND_DEF_STEREO_COUNT>
0

> <PUBCHEM_BOND_UDEF_STEREO_COUNT>
0

> <PUBCHEM_ISOTOPIC_ATOM_COUNT>
0

> <PUBCHEM_COMPONENT_COUNT>
1

> <PUBCHEM_CACTVS_TAUTO_COUNT>
3

> <PUBCHEM_COORDINATE_TYPE>
1
5
255

> <PUBCHEM_BONDANNOTATIONS>
10  13  8
10  14  8
8  12  8
8  13  8
9  12  8
9  14  8

$$$$

