8266
  -OEChem-06261202422D

 23 24  0     1  0  0  0  0  0999 V2000
    6.5733    1.8721    0.0000 Cl  0  0  0  0  0  0  0  0  0  0  0  0
    5.7968   -1.0256    0.0000 Cl  0  0  0  0  0  0  0  0  0  0  0  0
    4.6643    2.2956    0.0000 Cl  0  0  0  0  0  0  0  0  0  0  0  0
    5.6824    2.8833    0.0000 Cl  0  0  0  0  0  0  0  0  0  0  0  0
    9.0125    0.6474    0.0000 Cl  0  0  0  0  0  0  0  0  0  0  0  0
    8.3876   -1.6846    0.0000 Cl  0  0  0  0  0  0  0  0  0  0  0  0
    3.0989   -2.2845    0.0000 O   0  0  0  0  0  0  0  0  0  0  0  0
    2.5989    1.0310    0.0000 O   0  0  0  0  0  0  0  0  0  0  0  0
    4.7719   -2.7327    0.0000 O   0  0  0  0  0  0  0  0  0  0  0  0
    2.1506   -0.6420    0.0000 O   0  0  0  0  0  0  0  0  0  0  0  0
    6.0557   -0.0597    0.0000 C   0  0  3  0  0  0  0  0  0  0  0  0
    6.3145    0.9062    0.0000 C   0  0  3  0  0  0  0  0  0  0  0  0
    4.3236   -1.0597    0.0000 C   0  0  3  0  0  0  0  0  0  0  0  0
    3.8236   -0.1937    0.0000 C   0  0  3  0  0  0  0  0  0  0  0  0
    5.5779    1.8888    0.0000 C   0  0  0  0  0  0  0  0  0  0  0  0
    8.1464    0.1474    0.0000 C   0  0  0  0  0  0  0  0  0  0  0  0
    7.8876   -0.8185    0.0000 C   0  0  0  0  0  0  0  0  0  0  0  0
    4.0648   -2.0256    0.0000 C   0  0  0  0  0  0  0  0  0  0  0  0
    2.8577    0.0651    0.0000 C   0  0  0  0  0  0  0  0  0  0  0  0
    4.8155   -1.4372    0.0000 H   0  0  0  0  0  0  0  0  0  0  0  0
    3.7759    0.4245    0.0000 H   0  0  0  0  0  0  0  0  0  0  0  0
    2.9384   -2.8833    0.0000 H   0  0  0  0  0  0  0  0  0  0  0  0
    2.0000    1.1915    0.0000 H   0  0  0  0  0  0  0  0  0  0  0  0
  1 12  1  0  0  0  0
  2 11  1  0  0  0  0
  3 15  1  0  0  0  0
  4 15  1  0  0  0  0
  5 16  1  0  0  0  0
  6 17  1  0  0  0  0
  7 18  1  0  0  0  0
  7 22  1  0  0  0  0
  8 19  1  0  0  0  0
  8 23  1  0  0  0  0
  9 18  2  0  0  0  0
 10 19  2  0  0  0  0
 11 13  1  0  0  0  0
 11 15  1  0  0  0  0
 11 17  1  0  0  0  0
 12 14  1  0  0  0  0
 12 15  1  0  0  0  0
 12 16  1  0  0  0  0
 13 14  1  0  0  0  0
 13 18  1  0  0  0  0
 13 20  1  0  0  0  0
 14 19  1  0  0  0  0
 14 21  1  0  0  0  0
 16 17  2  0  0  0  0
M  END
> <PUBCHEM_COMPOUND_CID>
8266

> <PUBCHEM_COMPOUND_CANONICALIZED>
1

> <PUBCHEM_CACTVS_COMPLEXITY>
487

> <PUBCHEM_CACTVS_HBOND_ACCEPTOR>
4

> <PUBCHEM_CACTVS_HBOND_DONOR>
2

> <PUBCHEM_CACTVS_ROTATABLE_BOND>
2

> <PUBCHEM_CACTVS_SUBSKEYS>
AAADcYBwOAAHAAAAAAAAAAAAAAAAAYIAAAAgAAAAAAAAAAAAAAAAGgIACAAADQKAgIAACAAAAgCIAADQCAAAAAAgAAAACEEAAggAABIBAAAAQAAEgAAIAAPLyDCOgAAAAAAAAAAAAAAAAAAAARAASIACAA==

> <PUBCHEM_IUPAC_OPENEYE_NAME>
1,2,3,4,7,7-hexachlorobicyclo[2.2.1]hept-2-ene-5,6-dicarboxylic acid

> <PUBCHEM_IUPAC_CAS_NAME>
1,2,3,4,7,7-hexachlorobicyclo[2.2.1]hept-2-ene-5,6-dicarboxylic acid

> <PUBCHEM_IUPAC_NAME>
1,2,3,4,7,7-hexachlorobicyclo[2.2.1]hept-2-ene-5,6-dicarboxylic acid

> <PUBCHEM_IUPAC_SYSTEMATIC_NAME>
1,2,3,4,7,7-hexakis(chloranyl)bicyclo[2.2.1]hept-2-ene-5,6-dicarboxylic acid

> <PUBCHEM_IUPAC_TRADITIONAL_NAME>
1,2,3,4,7,7-hexachlorobicyclo[2.2.1]hept-2-ene-5,6-dicarboxylic acid

> <PUBCHEM_IUPAC_INCHI>
InChI=1S/C9H4Cl6O4/c10-3-4(11)8(13)2(6(18)19)1(5(16)17)7(3,12)9(8,14)15/h1-2H,(H,16,17)(H,18,19)

> <PUBCHEM_IUPAC_INCHIKEY>
DJKGDNKYTKCJKD-UHFFFAOYSA-N

> <PUBCHEM_XLOGP3_AA>
2

> <PUBCHEM_EXACT_MASS>
387.821125

> <PUBCHEM_MOLECULAR_FORMULA>
C9H4Cl6O4

> <PUBCHEM_MOLECULAR_WEIGHT>
388.84366

> <PUBCHEM_OPENEYE_CAN_SMILES>
C1(C(C2(C(=C(C1(C2(Cl)Cl)Cl)Cl)Cl)Cl)C(=O)O)C(=O)O

> <PUBCHEM_OPENEYE_ISO_SMILES>
C1(C(C2(C(=C(C1(C2(Cl)Cl)Cl)Cl)Cl)Cl)C(=O)O)C(=O)O

> <PUBCHEM_CACTVS_TPSA>
74.6

> <PUBCHEM_MONOISOTOPIC_WEIGHT>
385.824075

> <PUBCHEM_TOTAL_CHARGE>
0

> <PUBCHEM_HEAVY_ATOM_COUNT>
19

> <PUBCHEM_ATOM_DEF_STEREO_COUNT>
0

> <PUBCHEM_ATOM_UDEF_STEREO_COUNT>
4

> <PUBCHEM_BOND_DEF_STEREO_COUNT>
0

> <PUBCHEM_BOND_UDEF_STEREO_COUNT>
0

> <PUBCHEM_ISOTOPIC_ATOM_COUNT>
0

> <PUBCHEM_COMPONENT_COUNT>
1

> <PUBCHEM_CACTVS_TAUTO_COUNT>
1

> <PUBCHEM_COORDINATE_TYPE>
1
5
255

> <PUBCHEM_BONDANNOTATIONS>
12  1  3
13  18  3
14  19  3
11  2  3

$$$$

