586271
  -OEChem-06241222463D

 44 44  0     1  0  0  0  0  0999 V2000
    3.4955   -0.7148    1.9475 O   0  0  0  0  0  0  0  0  0  0  0  0
   -1.0988    1.5240    1.5331 O   0  0  0  0  0  0  0  0  0  0  0  0
   -4.3110   -1.9184   -1.3353 O   0  0  0  0  0  0  0  0  0  0  0  0
    3.6417    0.4092   -0.1813 C   0  0  0  0  0  0  0  0  0  0  0  0
    2.9292    0.8169   -1.4744 C   0  0  0  0  0  0  0  0  0  0  0  0
    2.7895   -0.4949    0.7243 C   0  0  1  0  0  0  0  0  0  0  0  0
    1.6065    1.4986   -1.2037 C   0  0  0  0  0  0  0  0  0  0  0  0
    0.4056    1.0141   -1.5767 C   0  0  0  0  0  0  0  0  0  0  0  0
   -0.9481    1.6165   -1.3183 C   0  0  0  0  0  0  0  0  0  0  0  0
    2.4513   -1.8434    0.1257 C   0  0  0  0  0  0  0  0  0  0  0  0
   -1.8624    0.6732   -0.5734 C   0  0  0  0  0  0  0  0  0  0  0  0
    1.6970    2.7905   -0.4336 C   0  0  0  0  0  0  0  0  0  0  0  0
   -1.8879    0.6788    0.8125 C   0  0  0  0  0  0  0  0  0  0  0  0
    3.5862   -2.7356   -0.2942 C   0  0  0  0  0  0  0  0  0  0  0  0
   -2.6659   -0.1893   -1.3037 C   0  0  0  0  0  0  0  0  0  0  0  0
    1.1755   -2.2367   -0.0196 C   0  0  0  0  0  0  0  0  0  0  0  0
   -2.7375   -0.1996    1.4851 C   0  0  0  0  0  0  0  0  0  0  0  0
   -3.5155   -1.0676   -0.6311 C   0  0  0  0  0  0  0  0  0  0  0  0
   -3.5513   -1.0728    0.7633 C   0  0  0  0  0  0  0  0  0  0  0  0
   -1.1997    1.4513    2.9539 C   0  0  0  0  0  0  0  0  0  0  0  0
    4.5921   -0.0815   -0.4263 H   0  0  0  0  0  0  0  0  0  0  0  0
    3.9341    1.3047    0.3831 H   0  0  0  0  0  0  0  0  0  0  0  0
    3.5735    1.4960   -2.0459 H   0  0  0  0  0  0  0  0  0  0  0  0
    2.7819   -0.0648   -2.1096 H   0  0  0  0  0  0  0  0  0  0  0  0
    1.8701    0.0272    1.0128 H   0  0  0  0  0  0  0  0  0  0  0  0
    0.3959    0.0811   -2.1393 H   0  0  0  0  0  0  0  0  0  0  0  0
   -0.9087    2.5697   -0.7838 H   0  0  0  0  0  0  0  0  0  0  0  0
   -1.3988    1.8642   -2.2888 H   0  0  0  0  0  0  0  0  0  0  0  0
    2.6572    3.2831   -0.6256 H   0  0  0  0  0  0  0  0  0  0  0  0
    0.9355    3.5185   -0.7250 H   0  0  0  0  0  0  0  0  0  0  0  0
    1.6232    2.6042    0.6423 H   0  0  0  0  0  0  0  0  0  0  0  0
    4.2778   -2.8973    0.5387 H   0  0  0  0  0  0  0  0  0  0  0  0
    4.1395   -2.2931   -1.1280 H   0  0  0  0  0  0  0  0  0  0  0  0
    3.2338   -3.7199   -0.6212 H   0  0  0  0  0  0  0  0  0  0  0  0
   -2.6411   -0.1910   -2.3903 H   0  0  0  0  0  0  0  0  0  0  0  0
    3.6530    0.1534    2.3563 H   0  0  0  0  0  0  0  0  0  0  0  0
    0.3496   -1.6065    0.2899 H   0  0  0  0  0  0  0  0  0  0  0  0
    0.9267   -3.2023   -0.4472 H   0  0  0  0  0  0  0  0  0  0  0  0
   -2.8187   -0.2606    2.5647 H   0  0  0  0  0  0  0  0  0  0  0  0
   -4.2093   -1.7526    1.2981 H   0  0  0  0  0  0  0  0  0  0  0  0
   -0.8804    0.4738    3.3314 H   0  0  0  0  0  0  0  0  0  0  0  0
   -2.2002    1.7284    3.3029 H   0  0  0  0  0  0  0  0  0  0  0  0
   -0.5043    2.1914    3.3635 H   0  0  0  0  0  0  0  0  0  0  0  0
   -4.8318   -2.4523   -0.7110 H   0  0  0  0  0  0  0  0  0  0  0  0
  1  6  1  0  0  0  0
  1 36  1  0  0  0  0
  2 13  1  0  0  0  0
  2 20  1  0  0  0  0
  3 18  1  0  0  0  0
  3 44  1  0  0  0  0
  4  5  1  0  0  0  0
  4  6  1  0  0  0  0
  4 21  1  0  0  0  0
  4 22  1  0  0  0  0
  5  7  1  0  0  0  0
  5 23  1  0  0  0  0
  5 24  1  0  0  0  0
  6 10  1  0  0  0  0
  6 25  1  0  0  0  0
  7  8  2  0  0  0  0
  7 12  1  0  0  0  0
  8  9  1  0  0  0  0
  8 26  1  0  0  0  0
  9 11  1  0  0  0  0
  9 27  1  0  0  0  0
  9 28  1  0  0  0  0
 10 14  1  0  0  0  0
 10 16  2  0  0  0  0
 11 13  2  0  0  0  0
 11 15  1  0  0  0  0
 12 29  1  0  0  0  0
 12 30  1  0  0  0  0
 12 31  1  0  0  0  0
 13 17  1  0  0  0  0
 14 32  1  0  0  0  0
 14 33  1  0  0  0  0
 14 34  1  0  0  0  0
 15 18  2  0  0  0  0
 15 35  1  0  0  0  0
 16 37  1  0  0  0  0
 16 38  1  0  0  0  0
 17 19  2  0  0  0  0
 17 39  1  0  0  0  0
 18 19  1  0  0  0  0
 19 40  1  0  0  0  0
 20 41  1  0  0  0  0
 20 42  1  0  0  0  0
 20 43  1  0  0  0  0
M  END
> <PUBCHEM_COMPOUND_CID>
586271

> <PUBCHEM_CONFORMER_RMSD>
0.8

> <PUBCHEM_CONFORMER_DIVERSEORDER>
1
221
40
281
329
454
429
16
380
166
295
359
9
145
290
322
417
414
238
41
115
458
104
217
124
30
223
310
357
305
177
408
365
209
147
95
92
123
372
167
368
6
233
236
245
347
306
301
409
96
66
262
336
113
35
127
265
405
285
44
212
216
402
26
108
237
186
193
276
81
241
426
146
283
218
268
309
352
69
120
413
385
112
296
232
286
425
297
294
143
107
181
246
130
314
197
228
252
300
139
58
273
412
340
446
437
361
190
373
71
444
38
264
224
126
235
156
117
137
452
307
57
102
288
53
330
335
22
261
389
304
374
332
243
406
206
78
341
61
198
292
2
395
27
376
240
387
56
317
325
196
334
370
100
369
293
248
266
291
215
354
375
3
155
23
362
282
148
49
260
379
169
397
184
250
388
299
338
366
152
75
247
411
287
65
207
153
195
161
160
176
159
302
364
51
199
8
384
419
230
164
157
191
315
85
440
321
82
267
121
110
331
125
344
144
277
210
428
420
173
47
84
32
333
135
443
254
271
132
259
21
225
101
378
367
456
448
88
274
421
91
25
358
371
201
239
328
442
149
14
298
183
377
393
109
163
83
11
255
318
194
133
399
349
86
54
20
171
114
18
36
234
28
308
19
327
423
185
29
382
134
324
98
34
94
158
263
89
459
432
4
343
348
219
76
381
5
272
229
450
430
392
204
99
316
256
43
24
180
398
17
50
93
205
422
257
403
313
445
427
311
80
202
339
162
323
226
42
172
244
346
435
453
142
74
424
438
178
52
67
360
227
390
55
150
303
154
12
289
37
213
319
116
128
179
284
131
337
129
31
434
383
45
48
170
394
231
279
165
345
103
275
122
203
59
439
111
73
13
63
136
415
188
258
342
404
46
60
401
220
182
211
79
15
351
90
278
151
189
312
355
449
105
431
72
455
447
87
140
391
214
200
253
436
280
119
242
326
97
39
208
7
106
70
222
410
251
62
138
270
77
320
249
350
64
386
168
118
174
141
400
68
416
407
33
269
356
187
175
396
363
192
457
353
10
451
433
418
441

> <PUBCHEM_MMFF94_PARTIAL_CHARGES>
27
1 -0.68
10 -0.28
11 -0.14
12 0.14
13 0.08
14 0.14
15 -0.15
16 -0.3
17 -0.15
18 0.08
19 -0.15
2 -0.36
20 0.28
26 0.15
3 -0.53
35 0.15
36 0.4
37 0.15
38 0.15
39 0.15
40 0.15
44 0.45
5 0.14
6 0.42
7 -0.28
8 -0.29
9 0.28

> <PUBCHEM_EFFECTIVE_ROTOR_COUNT>
7

> <PUBCHEM_PHARMACOPHORE_FEATURES>
6
1 1 acceptor
1 1 donor
1 12 hydrophobe
1 2 acceptor
1 3 donor
6 11 13 15 17 18 19 rings

> <PUBCHEM_HEAVY_ATOM_COUNT>
20

> <PUBCHEM_ATOM_DEF_STEREO_COUNT>
0

> <PUBCHEM_ATOM_UDEF_STEREO_COUNT>
1

> <PUBCHEM_BOND_DEF_STEREO_COUNT>
0

> <PUBCHEM_BOND_UDEF_STEREO_COUNT>
1

> <PUBCHEM_ISOTOPIC_ATOM_COUNT>
0

> <PUBCHEM_COMPONENT_COUNT>
1

> <PUBCHEM_CACTVS_TAUTO_COUNT>
6

> <PUBCHEM_CONFORMER_ID>
0008F21F00000001

> <PUBCHEM_MMFF94_ENERGY>
45.6169

> <PUBCHEM_FEATURE_SELFOVERLAP>
30.446

> <PUBCHEM_SHAPE_FINGERPRINT>
11578080 2 18116176414537912865
12156800 1 11186875302175317130
12363563 72 17703511098907902034
12553582 1 18272640247215450908
12596599 1 18117266167672483886
12824470 246 18261952943165355581
128993 33 6699223760169021898
14251757 17 16773525382422168027
14251764 30 17751629082600118494
14713325 29 10983871551390664453
14787075 74 17679310658917855176
14848160 33 17918277540893097442
15475509 35 17829324693182259435
15635459 17 17774996869336806562
17357779 13 17846213397288447702
17834072 14 17988933279228036855
18981168 100 6194268560913686430
20645477 70 17988923310487415829
20775530 9 18338802350121396530
21315764 371 17677620765206770135
2255824 54 18127399056412520228
22907989 373 12895055298721303281
23503958 8 17459453610970907726
23559900 14 16486699039548803740
238 59 17845649227495593068
33382 64 17983566409082461963
3797600 57 17823131216500381348
5262128 65 17489867128723402548
6287921 2 18041547156701047846
9709674 26 17846501451864782316

> <PUBCHEM_SHAPE_MULTIPOLES>
393.98
7.26
2.73
2.1
0.58
0.37
1.42
4.24
-0.55
-1.89
-0.49
1.06
-0.69
-1.18

> <PUBCHEM_SHAPE_SELFOVERLAP>
796.55

> <PUBCHEM_SHAPE_VOLUME>
231

> <PUBCHEM_COORDINATE_TYPE>
2
5
10

$$$$

