13587
  -OEChem-06241222393D

 12 12  0     0  0  0  0  0  0999 V2000
   -1.3931    0.6936    0.0000 O   0  0  0  0  0  0  0  0  0  0  0  0
    0.7451    0.0012    0.0001 C   0  0  0  0  0  0  0  0  0  0  0  0
   -0.0926   -1.1396    0.0001 C   0  0  0  0  0  0  0  0  0  0  0  0
    2.2180    0.0188   -0.0002 C   0  0  0  0  0  0  0  0  0  0  0  0
   -0.0938    1.0913    0.0001 C   0  0  0  0  0  0  0  0  0  0  0  0
   -1.3837   -0.6653   -0.0001 C   0  0  0  0  0  0  0  0  0  0  0  0
    0.2036   -2.1789    0.0003 H   0  0  0  0  0  0  0  0  0  0  0  0
    2.6000   -0.0133    1.0252 H   0  0  0  0  0  0  0  0  0  0  0  0
    2.6216   -0.8429   -0.5419 H   0  0  0  0  0  0  0  0  0  0  0  0
    2.6040    0.9242   -0.4801 H   0  0  0  0  0  0  0  0  0  0  0  0
    0.0662    2.1599    0.0001 H   0  0  0  0  0  0  0  0  0  0  0  0
   -2.3543   -1.1393   -0.0002 H   0  0  0  0  0  0  0  0  0  0  0  0
  1  5  1  0  0  0  0
  1  6  1  0  0  0  0
  2  3  1  0  0  0  0
  2  4  1  0  0  0  0
  2  5  2  0  0  0  0
  3  6  2  0  0  0  0
  3  7  1  0  0  0  0
  4  8  1  0  0  0  0
  4  9  1  0  0  0  0
  4 10  1  0  0  0  0
  5 11  1  0  0  0  0
  6 12  1  0  0  0  0
M  END
> <PUBCHEM_COMPOUND_CID>
13587

> <PUBCHEM_CONFORMER_RMSD>
0.4

> <PUBCHEM_CONFORMER_DIVERSEORDER>
1

> <PUBCHEM_MMFF94_PARTIAL_CHARGES>
9
1 -0.28
11 0.15
12 0.15
2 -0.18
3 -0.15
4 0.18
5 -0.01
6 -0.01
7 0.15

> <PUBCHEM_EFFECTIVE_ROTOR_COUNT>
0

> <PUBCHEM_PHARMACOPHORE_FEATURES>
2
1 1 acceptor
5 1 2 3 5 6 rings

> <PUBCHEM_HEAVY_ATOM_COUNT>
6

> <PUBCHEM_ATOM_DEF_STEREO_COUNT>
0

> <PUBCHEM_ATOM_UDEF_STEREO_COUNT>
0

> <PUBCHEM_BOND_DEF_STEREO_COUNT>
0

> <PUBCHEM_BOND_UDEF_STEREO_COUNT>
0

> <PUBCHEM_ISOTOPIC_ATOM_COUNT>
0

> <PUBCHEM_COMPONENT_COUNT>
1

> <PUBCHEM_CACTVS_TAUTO_COUNT>
1

> <PUBCHEM_CONFORMER_ID>
0000351300000001

> <PUBCHEM_MMFF94_ENERGY>
1.7356

> <PUBCHEM_FEATURE_SELFOVERLAP>
10.148

> <PUBCHEM_SHAPE_FINGERPRINT>
139733 1 9222970161128499618
16714656 1 18410849958496621294
20096714 4 18339079414213315840
21015797 1 9294126164295386891
21040471 1 18266459999671881797
23552423 10 18272645783861091214
29004967 10 18269266885422434914
5943 1 10444514570136951615

> <PUBCHEM_SHAPE_MULTIPOLES>
117.61
2.14
1.17
0.6
0.92
0.02
0
-0.08
0
-0.24
0
0.02
-0.01
0

> <PUBCHEM_SHAPE_SELFOVERLAP>
239.701

> <PUBCHEM_SHAPE_VOLUME>
71.1

> <PUBCHEM_COORDINATE_TYPE>
2
5
10

$$$$

