10667
  -OEChem-06261204493D

 18 19  0     0  0  0  0  0  0999 V2000
    1.4043    2.0790   -0.0002 O   0  0  0  0  0  0  0  0  0  0  0  0
    3.3057    0.1993    0.0005 O   0  0  0  0  0  0  0  0  0  0  0  0
   -0.3491    0.4807   -0.0004 C   0  0  0  0  0  0  0  0  0  0  0  0
   -0.6430   -0.8889   -0.0005 C   0  0  0  0  0  0  0  0  0  0  0  0
    1.0620    0.9074   -0.0002 C   0  0  0  0  0  0  0  0  0  0  0  0
    0.4255   -1.8910   -0.0001 C   0  0  0  0  0  0  0  0  0  0  0  0
   -1.3699    1.4357    0.0000 C   0  0  0  0  0  0  0  0  0  0  0  0
   -1.9842   -1.2913   -0.0002 C   0  0  0  0  0  0  0  0  0  0  0  0
    2.1345   -0.1474   -0.0001 C   0  0  0  0  0  0  0  0  0  0  0  0
    1.7217   -1.5631    0.0004 C   0  0  0  0  0  0  0  0  0  0  0  0
   -2.7003    1.0198    0.0005 C   0  0  0  0  0  0  0  0  0  0  0  0
   -3.0072   -0.3403    0.0003 C   0  0  0  0  0  0  0  0  0  0  0  0
    0.1392   -2.9383    0.0001 H   0  0  0  0  0  0  0  0  0  0  0  0
   -1.1486    2.4993    0.0001 H   0  0  0  0  0  0  0  0  0  0  0  0
   -2.2488   -2.3463   -0.0001 H   0  0  0  0  0  0  0  0  0  0  0  0
    2.4962   -2.3211    0.0008 H   0  0  0  0  0  0  0  0  0  0  0  0
   -3.4990    1.7559    0.0009 H   0  0  0  0  0  0  0  0  0  0  0  0
   -4.0449   -0.6615    0.0007 H   0  0  0  0  0  0  0  0  0  0  0  0
  1  5  2  0  0  0  0
  2  9  2  0  0  0  0
  3  4  1  0  0  0  0
  3  5  1  0  0  0  0
  3  7  2  0  0  0  0
  4  6  1  0  0  0  0
  4  8  2  0  0  0  0
  5  9  1  0  0  0  0
  6 10  2  0  0  0  0
  6 13  1  0  0  0  0
  7 11  1  0  0  0  0
  7 14  1  0  0  0  0
  8 12  1  0  0  0  0
  8 15  1  0  0  0  0
  9 10  1  0  0  0  0
 10 16  1  0  0  0  0
 11 12  2  0  0  0  0
 11 17  1  0  0  0  0
 12 18  1  0  0  0  0
M  END
> <PUBCHEM_COMPOUND_CID>
10667

> <PUBCHEM_CONFORMER_RMSD>
0.4

> <PUBCHEM_CONFORMER_DIVERSEORDER>
1

> <PUBCHEM_MMFF94_PARTIAL_CHARGES>
18
1 -0.57
10 -0.14
11 -0.15
12 -0.15
13 0.15
14 0.15
15 0.15
16 0.15
17 0.15
18 0.15
2 -0.57
3 0.09
4 0.03
5 0.48
6 -0.18
7 -0.15
8 -0.15
9 0.56

> <PUBCHEM_EFFECTIVE_ROTOR_COUNT>
0

> <PUBCHEM_PHARMACOPHORE_FEATURES>
4
1 1 acceptor
1 2 acceptor
6 3 4 5 6 9 10 rings
6 3 4 7 8 11 12 rings

> <PUBCHEM_HEAVY_ATOM_COUNT>
12

> <PUBCHEM_ATOM_DEF_STEREO_COUNT>
0

> <PUBCHEM_ATOM_UDEF_STEREO_COUNT>
0

> <PUBCHEM_BOND_DEF_STEREO_COUNT>
0

> <PUBCHEM_BOND_UDEF_STEREO_COUNT>
0

> <PUBCHEM_ISOTOPIC_ATOM_COUNT>
0

> <PUBCHEM_COMPONENT_COUNT>
1

> <PUBCHEM_CACTVS_TAUTO_COUNT>
1

> <PUBCHEM_CONFORMER_ID>
000029AB00000001

> <PUBCHEM_MMFF94_ENERGY>
28.0448

> <PUBCHEM_FEATURE_SELFOVERLAP>
20.328

> <PUBCHEM_SHAPE_FINGERPRINT>
10967382 1 18410855451612125703
11206711 2 18411981351497843837
11471102 20 18339083795533593061
12423570 1 12929178031718743701
12524768 44 18046905154356675287
12696612 119 18412257358954799479
12897270 3 18411139117175118711
13380535 76 18411704300385310107
14325111 11 18410574019516535712
15775835 57 18411411843229665781
16945 1 18410573989615346919
17844478 74 18059281133059137401
17990270 104 18410292557440785075
193761 8 15672386124996631015
19973954 147 18410571799282142323
20201158 50 18411140246751686379
21040471 1 18122624950943285632
21501502 16 18339364179256411451
2334 1 17906171754630566021
23402655 69 18264503943618540061
23463225 33 18270403909700827410
23552423 10 18342175527382896471
23559900 14 18334563665231163510
241688 4 17906450283296687210
2748010 2 18050847710858784839
5084963 1 18186799136756906795
528886 8 18410298024944475187
53812653 166 18334863822376777024
66348 1 18411418371521842479

> <PUBCHEM_SHAPE_MULTIPOLES>
235.22
4.16
1.98
0.6
0.1
0.02
0
0.27
0
-0.24
0
0.04
-0.02
0

> <PUBCHEM_SHAPE_SELFOVERLAP>
518.29

> <PUBCHEM_SHAPE_VOLUME>
125.6

> <PUBCHEM_COORDINATE_TYPE>
2
5
10

$$$$

