9723
  -OEChem-06261203592D

 42 43  0     0  0  0  0  0  0999 V2000
    2.8660    0.2500    0.0000 O   0  0  0  0  0  0  0  0  0  0  0  0
    5.4641   -0.2500    0.0000 O   0  0  0  0  0  0  0  0  0  0  0  0
    5.4641    1.7500    0.0000 N   0  0  0  0  0  0  0  0  0  0  0  0
    2.8660   -1.7500    0.0000 N   0  0  0  0  0  0  0  0  0  0  0  0
    4.5981    1.2500    0.0000 N   0  0  0  0  0  0  0  0  0  0  0  0
    3.7320   -1.2500    0.0000 N   0  0  0  0  0  0  0  0  0  0  0  0
    2.8660   -4.7500    0.0000 C   0  0  0  0  0  0  0  0  0  0  0  0
    5.4641    4.7500    0.0000 C   0  0  0  0  0  0  0  0  0  0  0  0
    3.7320   -4.2500    0.0000 C   0  0  0  0  0  0  0  0  0  0  0  0
    2.0000   -4.2500    0.0000 C   0  0  0  0  0  0  0  0  0  0  0  0
    4.5981    4.2500    0.0000 C   0  0  0  0  0  0  0  0  0  0  0  0
    6.3301    4.2500    0.0000 C   0  0  0  0  0  0  0  0  0  0  0  0
    3.7320   -3.2500    0.0000 C   0  0  0  0  0  0  0  0  0  0  0  0
    2.0000   -3.2500    0.0000 C   0  0  0  0  0  0  0  0  0  0  0  0
    4.5981    3.2500    0.0000 C   0  0  0  0  0  0  0  0  0  0  0  0
    6.3301    3.2500    0.0000 C   0  0  0  0  0  0  0  0  0  0  0  0
    2.8660   -2.7500    0.0000 C   0  0  0  0  0  0  0  0  0  0  0  0
    5.4641    2.7500    0.0000 C   0  0  0  0  0  0  0  0  0  0  0  0
    4.5981    0.2500    0.0000 C   0  0  0  0  0  0  0  0  0  0  0  0
    3.7320   -0.2500    0.0000 C   0  0  0  0  0  0  0  0  0  0  0  0
    2.4675   -5.2250    0.0000 H   0  0  0  0  0  0  0  0  0  0  0  0
    3.2646   -5.2250    0.0000 H   0  0  0  0  0  0  0  0  0  0  0  0
    5.8626    5.2250    0.0000 H   0  0  0  0  0  0  0  0  0  0  0  0
    5.0656    5.2250    0.0000 H   0  0  0  0  0  0  0  0  0  0  0  0
    6.9407    4.1423    0.0000 H   0  0  0  0  0  0  0  0  0  0  0  0
    6.5422    4.8326    0.0000 H   0  0  0  0  0  0  0  0  0  0  0  0
    4.3860    4.8326    0.0000 H   0  0  0  0  0  0  0  0  0  0  0  0
    3.9875    4.1423    0.0000 H   0  0  0  0  0  0  0  0  0  0  0  0
    1.3894   -4.1423    0.0000 H   0  0  0  0  0  0  0  0  0  0  0  0
    1.7880   -4.8326    0.0000 H   0  0  0  0  0  0  0  0  0  0  0  0
    3.9441   -4.8326    0.0000 H   0  0  0  0  0  0  0  0  0  0  0  0
    4.3426   -4.1423    0.0000 H   0  0  0  0  0  0  0  0  0  0  0  0
    1.7880   -2.6674    0.0000 H   0  0  0  0  0  0  0  0  0  0  0  0
    1.3894   -3.3577    0.0000 H   0  0  0  0  0  0  0  0  0  0  0  0
    4.3426   -3.3577    0.0000 H   0  0  0  0  0  0  0  0  0  0  0  0
    3.9441   -2.6674    0.0000 H   0  0  0  0  0  0  0  0  0  0  0  0
    3.9875    3.3577    0.0000 H   0  0  0  0  0  0  0  0  0  0  0  0
    4.3860    2.6674    0.0000 H   0  0  0  0  0  0  0  0  0  0  0  0
    6.5422    2.6674    0.0000 H   0  0  0  0  0  0  0  0  0  0  0  0
    6.9407    3.3577    0.0000 H   0  0  0  0  0  0  0  0  0  0  0  0
    4.2690   -1.5600    0.0000 H   0  0  0  0  0  0  0  0  0  0  0  0
    4.0611    1.5600    0.0000 H   0  0  0  0  0  0  0  0  0  0  0  0
  1 20  2  0  0  0  0
  2 19  2  0  0  0  0
  3  5  1  0  0  0  0
  3 18  2  0  0  0  0
  4  6  1  0  0  0  0
  4 17  2  0  0  0  0
  5 19  1  0  0  0  0
  5 42  1  0  0  0  0
  6 20  1  0  0  0  0
  6 41  1  0  0  0  0
  7  9  1  0  0  0  0
  7 10  1  0  0  0  0
  7 21  1  0  0  0  0
  7 22  1  0  0  0  0
  8 11  1  0  0  0  0
  8 12  1  0  0  0  0
  8 23  1  0  0  0  0
  8 24  1  0  0  0  0
  9 13  1  0  0  0  0
  9 31  1  0  0  0  0
  9 32  1  0  0  0  0
 10 14  1  0  0  0  0
 10 29  1  0  0  0  0
 10 30  1  0  0  0  0
 11 15  1  0  0  0  0
 11 27  1  0  0  0  0
 11 28  1  0  0  0  0
 12 16  1  0  0  0  0
 12 25  1  0  0  0  0
 12 26  1  0  0  0  0
 13 17  1  0  0  0  0
 13 35  1  0  0  0  0
 13 36  1  0  0  0  0
 14 17  1  0  0  0  0
 14 33  1  0  0  0  0
 14 34  1  0  0  0  0
 15 18  1  0  0  0  0
 15 37  1  0  0  0  0
 15 38  1  0  0  0  0
 16 18  1  0  0  0  0
 16 39  1  0  0  0  0
 16 40  1  0  0  0  0
 19 20  1  0  0  0  0
M  END
> <PUBCHEM_COMPOUND_CID>
9723

> <PUBCHEM_COMPOUND_CANONICALIZED>
1

> <PUBCHEM_CACTVS_COMPLEXITY>
373

> <PUBCHEM_CACTVS_HBOND_ACCEPTOR>
4

> <PUBCHEM_CACTVS_HBOND_DONOR>
2

> <PUBCHEM_CACTVS_ROTATABLE_BOND>
2

> <PUBCHEM_CACTVS_SUBSKEYS>
AAADceBzsAAAAAAAAAAAAAAAAAAAAAAAAAAwYAAAAAAAAAAAAAAAHgAYAAAACAiBgAAAAABiAAAoAQEwEAAQAAAAAAASAACwAAAAQAIAAAAAAAAACAAAAAEAAAAAAAAAAAAAAAAAAAAAAAAAAAAAAAAAAA==

> <PUBCHEM_IUPAC_OPENEYE_NAME>
N,N'-bis(cyclohexylideneamino)oxamide

> <PUBCHEM_IUPAC_CAS_NAME>
N,N'-bis(cyclohexylideneamino)oxamide

> <PUBCHEM_IUPAC_NAME>
N,N'-bis(cyclohexylideneamino)oxamide

> <PUBCHEM_IUPAC_SYSTEMATIC_NAME>
N,N'-bis(cyclohexylideneamino)ethanediamide

> <PUBCHEM_IUPAC_TRADITIONAL_NAME>
N,N'-bis(cyclohexylideneamino)oxamide

> <PUBCHEM_IUPAC_INCHI>
InChI=1S/C14H22N4O2/c19-13(17-15-11-7-3-1-4-8-11)14(20)18-16-12-9-5-2-6-10-12/h1-10H2,(H,17,19)(H,18,20)

> <PUBCHEM_IUPAC_INCHIKEY>
DSRJIHMZAQEUJV-UHFFFAOYSA-N

> <PUBCHEM_XLOGP3_AA>
1.6

> <PUBCHEM_EXACT_MASS>
278.174276

> <PUBCHEM_MOLECULAR_FORMULA>
C14H22N4O2

> <PUBCHEM_MOLECULAR_WEIGHT>
278.35008

> <PUBCHEM_OPENEYE_CAN_SMILES>
C1CCC(=NNC(=O)C(=O)NN=C2CCCCC2)CC1

> <PUBCHEM_OPENEYE_ISO_SMILES>
C1CCC(=NNC(=O)C(=O)NN=C2CCCCC2)CC1

> <PUBCHEM_CACTVS_TPSA>
82.9

> <PUBCHEM_MONOISOTOPIC_WEIGHT>
278.174276

> <PUBCHEM_TOTAL_CHARGE>
0

> <PUBCHEM_HEAVY_ATOM_COUNT>
20

> <PUBCHEM_ATOM_DEF_STEREO_COUNT>
0

> <PUBCHEM_ATOM_UDEF_STEREO_COUNT>
0

> <PUBCHEM_BOND_DEF_STEREO_COUNT>
0

> <PUBCHEM_BOND_UDEF_STEREO_COUNT>
0

> <PUBCHEM_ISOTOPIC_ATOM_COUNT>
0

> <PUBCHEM_COMPONENT_COUNT>
1

> <PUBCHEM_CACTVS_TAUTO_COUNT>
3

> <PUBCHEM_COORDINATE_TYPE>
1
5
255

$$$$

