13020
  -OEChem-06261207393D

 23 23  0     1  0  0  0  0  0999 V2000
   -1.0583   -1.0288   -0.0182 O   0  0  0  0  0  0  0  0  0  0  0  0
    4.0628   -0.5049   -0.1429 O   0  0  0  0  0  0  0  0  0  0  0  0
   -0.7716    0.3290   -0.3936 C   0  0  1  0  0  0  0  0  0  0  0  0
   -1.9599    1.1554    0.0669 C   0  0  0  0  0  0  0  0  0  0  0  0
    0.5441    0.7662    0.2206 C   0  0  0  0  0  0  0  0  0  0  0  0
   -3.0950    0.1805   -0.1219 C   0  0  0  0  0  0  0  0  0  0  0  0
   -2.4561   -1.1278    0.2933 C   0  0  0  0  0  0  0  0  0  0  0  0
    1.7023   -0.1160   -0.2418 C   0  0  0  0  0  0  0  0  0  0  0  0
    3.0316    0.3464    0.3376 C   0  0  0  0  0  0  0  0  0  0  0  0
   -0.7048    0.3523   -1.4887 H   0  0  0  0  0  0  0  0  0  0  0  0
   -2.0817    2.0800   -0.5040 H   0  0  0  0  0  0  0  0  0  0  0  0
   -1.8723    1.4158    1.1287 H   0  0  0  0  0  0  0  0  0  0  0  0
    0.7442    1.8120   -0.0411 H   0  0  0  0  0  0  0  0  0  0  0  0
    0.4811    0.7067    1.3146 H   0  0  0  0  0  0  0  0  0  0  0  0
   -3.9869    0.4241    0.4612 H   0  0  0  0  0  0  0  0  0  0  0  0
   -3.3776    0.1397   -1.1805 H   0  0  0  0  0  0  0  0  0  0  0  0
   -2.5452   -1.2870    1.3731 H   0  0  0  0  0  0  0  0  0  0  0  0
   -2.8888   -1.9890   -0.2233 H   0  0  0  0  0  0  0  0  0  0  0  0
    1.5335   -1.1614    0.0447 H   0  0  0  0  0  0  0  0  0  0  0  0
    1.7662   -0.1130   -1.3373 H   0  0  0  0  0  0  0  0  0  0  0  0
    3.2563    1.3725    0.0298 H   0  0  0  0  0  0  0  0  0  0  0  0
    3.0195    0.2966    1.4311 H   0  0  0  0  0  0  0  0  0  0  0  0
    4.8973   -0.1873    0.2421 H   0  0  0  0  0  0  0  0  0  0  0  0
  1  3  1  0  0  0  0
  1  7  1  0  0  0  0
  2  9  1  0  0  0  0
  2 23  1  0  0  0  0
  3  4  1  0  0  0  0
  3  5  1  0  0  0  0
  3 10  1  0  0  0  0
  4  6  1  0  0  0  0
  4 11  1  0  0  0  0
  4 12  1  0  0  0  0
  5  8  1  0  0  0  0
  5 13  1  0  0  0  0
  5 14  1  0  0  0  0
  6  7  1  0  0  0  0
  6 15  1  0  0  0  0
  6 16  1  0  0  0  0
  7 17  1  0  0  0  0
  7 18  1  0  0  0  0
  8  9  1  0  0  0  0
  8 19  1  0  0  0  0
  8 20  1  0  0  0  0
  9 21  1  0  0  0  0
  9 22  1  0  0  0  0
M  END
> <PUBCHEM_COMPOUND_CID>
13020

> <PUBCHEM_CONFORMER_RMSD>
0.6

> <PUBCHEM_CONFORMER_DIVERSEORDER>
1
27
22
13
6
26
19
16
2
28
21
23
18
17
25
24
14
15
3
12
4
10
9
11
7
5
8
20

> <PUBCHEM_MMFF94_PARTIAL_CHARGES>
6
1 -0.56
2 -0.68
23 0.4
3 0.28
7 0.28
9 0.28

> <PUBCHEM_EFFECTIVE_ROTOR_COUNT>
4

> <PUBCHEM_PHARMACOPHORE_FEATURES>
4
1 1 acceptor
1 2 acceptor
1 2 donor
5 1 3 4 6 7 rings

> <PUBCHEM_HEAVY_ATOM_COUNT>
9

> <PUBCHEM_ATOM_DEF_STEREO_COUNT>
0

> <PUBCHEM_ATOM_UDEF_STEREO_COUNT>
1

> <PUBCHEM_BOND_DEF_STEREO_COUNT>
0

> <PUBCHEM_BOND_UDEF_STEREO_COUNT>
0

> <PUBCHEM_ISOTOPIC_ATOM_COUNT>
0

> <PUBCHEM_COMPONENT_COUNT>
1

> <PUBCHEM_CACTVS_TAUTO_COUNT>
1

> <PUBCHEM_CONFORMER_ID>
000032DC00000001

> <PUBCHEM_MMFF94_ENERGY>
10.0502

> <PUBCHEM_FEATURE_SELFOVERLAP>
20.297

> <PUBCHEM_SHAPE_FINGERPRINT>
10857977 72 18335710398800700577
11062470 55 16081088186048482505
12932764 1 17274833453894135748
14325111 11 18410856559966934632
190213 19 17989488515541338100
20201158 50 18260546744712717518
20645464 45 17967808362260090967
20871998 184 18188205378028031175
23402539 116 17894356588264334565
23552423 10 17986955150451179477
29004967 10 17603579716505417856
3248919 1 18333448750822249308
369184 2 16153427242426067497

> <PUBCHEM_SHAPE_MULTIPOLES>
173.48
5.93
1.12
0.65
4.78
0.04
0
0.79
-0.12
-0.6
-0.06
-0.01
-0.02
0.18

> <PUBCHEM_SHAPE_SELFOVERLAP>
330.512

> <PUBCHEM_SHAPE_VOLUME>
108.5

> <PUBCHEM_COORDINATE_TYPE>
2
5
10

$$$$

