17395880
  -OEChem-06241222522D

 45 47  0     0  0  0  0  0  0999 V2000
    7.1962    0.9806    0.0000 S   0  0  0  0  0  0  0  0  0  0  0  0
    6.3871    2.5684    0.0000 S   0  0  0  0  0  0  0  0  0  0  0  0
    8.1962    0.9806    0.0000 O   0  0  0  0  0  0  0  0  0  0  0  0
    6.1962    0.9806    0.0000 O   0  0  0  0  0  0  0  0  0  0  0  0
    3.7320   -2.0194    0.0000 N   0  0  0  0  0  0  0  0  0  0  0  0
    7.1962   -0.0194    0.0000 N   0  0  0  0  0  0  0  0  0  0  0  0
    3.7320   -3.0194    0.0000 C   0  0  0  0  0  0  0  0  0  0  0  0
    2.8660   -1.5194    0.0000 C   0  0  0  0  0  0  0  0  0  0  0  0
    2.8660   -3.5194    0.0000 C   0  0  0  0  0  0  0  0  0  0  0  0
    2.0000   -2.0194    0.0000 C   0  0  0  0  0  0  0  0  0  0  0  0
    2.0000   -3.0194    0.0000 C   0  0  0  0  0  0  0  0  0  0  0  0
    4.5981   -1.5194    0.0000 C   0  0  0  0  0  0  0  0  0  0  0  0
    5.4641   -2.0194    0.0000 C   0  0  0  0  0  0  0  0  0  0  0  0
    6.3301   -1.5194    0.0000 C   0  0  0  0  0  0  0  0  0  0  0  0
    6.3301   -0.5194    0.0000 C   0  0  0  0  0  0  0  0  0  0  0  0
    5.4641   -3.0194    0.0000 C   0  0  0  0  0  0  0  0  0  0  0  0
    7.1962   -2.0194    0.0000 C   0  0  0  0  0  0  0  0  0  0  0  0
    6.3301   -3.5194    0.0000 C   0  0  0  0  0  0  0  0  0  0  0  0
    7.1962   -3.0194    0.0000 C   0  0  0  0  0  0  0  0  0  0  0  0
    7.1962    1.9806    0.0000 C   0  0  0  0  0  0  0  0  0  0  0  0
    8.0052    2.5684    0.0000 C   0  0  0  0  0  0  0  0  0  0  0  0
    7.6962    3.5194    0.0000 C   0  0  0  0  0  0  0  0  0  0  0  0
    6.6962    3.5194    0.0000 C   0  0  0  0  0  0  0  0  0  0  0  0
    3.2646   -1.0445    0.0000 H   0  0  0  0  0  0  0  0  0  0  0  0
    2.4675   -1.0445    0.0000 H   0  0  0  0  0  0  0  0  0  0  0  0
    3.9441   -3.6020    0.0000 H   0  0  0  0  0  0  0  0  0  0  0  0
    4.3426   -2.9118    0.0000 H   0  0  0  0  0  0  0  0  0  0  0  0
    1.7880   -1.4368    0.0000 H   0  0  0  0  0  0  0  0  0  0  0  0
    1.3894   -2.1271    0.0000 H   0  0  0  0  0  0  0  0  0  0  0  0
    2.4675   -3.9944    0.0000 H   0  0  0  0  0  0  0  0  0  0  0  0
    3.2646   -3.9944    0.0000 H   0  0  0  0  0  0  0  0  0  0  0  0
    1.3894   -2.9118    0.0000 H   0  0  0  0  0  0  0  0  0  0  0  0
    1.7880   -3.6020    0.0000 H   0  0  0  0  0  0  0  0  0  0  0  0
    4.9966   -1.0445    0.0000 H   0  0  0  0  0  0  0  0  0  0  0  0
    4.1996   -1.0445    0.0000 H   0  0  0  0  0  0  0  0  0  0  0  0
    6.1181    0.0632    0.0000 H   0  0  0  0  0  0  0  0  0  0  0  0
    5.7196   -0.6271    0.0000 H   0  0  0  0  0  0  0  0  0  0  0  0
    4.9272   -3.3294    0.0000 H   0  0  0  0  0  0  0  0  0  0  0  0
    7.7331   -1.7094    0.0000 H   0  0  0  0  0  0  0  0  0  0  0  0
    6.3301   -4.1394    0.0000 H   0  0  0  0  0  0  0  0  0  0  0  0
    7.7331   -0.3294    0.0000 H   0  0  0  0  0  0  0  0  0  0  0  0
    7.7331   -3.3294    0.0000 H   0  0  0  0  0  0  0  0  0  0  0  0
    8.5948    2.3768    0.0000 H   0  0  0  0  0  0  0  0  0  0  0  0
    8.0606    4.0210    0.0000 H   0  0  0  0  0  0  0  0  0  0  0  0
    6.3317    4.0210    0.0000 H   0  0  0  0  0  0  0  0  0  0  0  0
  1  3  2  0  0  0  0
  1  4  2  0  0  0  0
  1  6  1  0  0  0  0
  1 20  1  0  0  0  0
  2 20  1  0  0  0  0
  2 23  1  0  0  0  0
  5  7  1  0  0  0  0
  5  8  1  0  0  0  0
  5 12  1  0  0  0  0
  6 15  1  0  0  0  0
  6 41  1  0  0  0  0
  7  9  1  0  0  0  0
  7 26  1  0  0  0  0
  7 27  1  0  0  0  0
  8 10  1  0  0  0  0
  8 24  1  0  0  0  0
  8 25  1  0  0  0  0
  9 11  1  0  0  0  0
  9 30  1  0  0  0  0
  9 31  1  0  0  0  0
 10 11  1  0  0  0  0
 10 28  1  0  0  0  0
 10 29  1  0  0  0  0
 11 32  1  0  0  0  0
 11 33  1  0  0  0  0
 12 13  1  0  0  0  0
 12 34  1  0  0  0  0
 12 35  1  0  0  0  0
 13 14  1  0  0  0  0
 13 16  2  0  0  0  0
 14 15  1  0  0  0  0
 14 17  2  0  0  0  0
 15 36  1  0  0  0  0
 15 37  1  0  0  0  0
 16 18  1  0  0  0  0
 16 38  1  0  0  0  0
 17 19  1  0  0  0  0
 17 39  1  0  0  0  0
 18 19  2  0  0  0  0
 18 40  1  0  0  0  0
 19 42  1  0  0  0  0
 20 21  2  0  0  0  0
 21 22  1  0  0  0  0
 21 43  1  0  0  0  0
 22 23  2  0  0  0  0
 22 44  1  0  0  0  0
 23 45  1  0  0  0  0
M  END
> <PUBCHEM_COMPOUND_CID>
17395880

> <PUBCHEM_COMPOUND_CANONICALIZED>
1

> <PUBCHEM_CACTVS_COMPLEXITY>
458

> <PUBCHEM_CACTVS_HBOND_ACCEPTOR>
5

> <PUBCHEM_CACTVS_HBOND_DONOR>
1

> <PUBCHEM_CACTVS_ROTATABLE_BOND>
6

> <PUBCHEM_CACTVS_SUBSKEYS>
AAADceB7MABgAAAAAAAAAAAAAAAAASAAAAA8QAAAAAAAAAABwAAAHAQQQAAADADFWASwAYNAAAqEAiBCAHDDAZAgCBBIiJgIBIgIICKgkRGEIAhggACoiAcQgIAOgAAAAAAQAAAAAAAAACAAAAAAAAAAAA==

> <PUBCHEM_IUPAC_OPENEYE_NAME>
N-[[2-(1-piperidylmethyl)phenyl]methyl]thiophene-2-sulfonamide

> <PUBCHEM_IUPAC_CAS_NAME>
N-[[2-(1-piperidinylmethyl)phenyl]methyl]-2-thiophenesulfonamide

> <PUBCHEM_IUPAC_NAME>
N-[[2-(piperidin-1-ylmethyl)phenyl]methyl]thiophene-2-sulfonamide

> <PUBCHEM_IUPAC_SYSTEMATIC_NAME>
N-[[2-(piperidin-1-ylmethyl)phenyl]methyl]thiophene-2-sulfonamide

> <PUBCHEM_IUPAC_TRADITIONAL_NAME>
N-[2-(piperidinomethyl)benzyl]thiophene-2-sulfonamide

> <PUBCHEM_IUPAC_INCHI>
InChI=1S/C17H22N2O2S2/c20-23(21,17-9-6-12-22-17)18-13-15-7-2-3-8-16(15)14-19-10-4-1-5-11-19/h2-3,6-9,12,18H,1,4-5,10-11,13-14H2

> <PUBCHEM_IUPAC_INCHIKEY>
VXXKEOYVJGBWKO-UHFFFAOYSA-N

> <PUBCHEM_XLOGP3_AA>
3.1

> <PUBCHEM_EXACT_MASS>
350.11227

> <PUBCHEM_MOLECULAR_FORMULA>
C17H22N2O2S2

> <PUBCHEM_MOLECULAR_WEIGHT>
350.49878

> <PUBCHEM_OPENEYE_CAN_SMILES>
C1CCN(CC1)CC2=CC=CC=C2CNS(=O)(=O)C3=CC=CS3

> <PUBCHEM_OPENEYE_ISO_SMILES>
C1CCN(CC1)CC2=CC=CC=C2CNS(=O)(=O)C3=CC=CS3

> <PUBCHEM_CACTVS_TPSA>
86

> <PUBCHEM_MONOISOTOPIC_WEIGHT>
350.11227

> <PUBCHEM_TOTAL_CHARGE>
0

> <PUBCHEM_HEAVY_ATOM_COUNT>
23

> <PUBCHEM_ATOM_DEF_STEREO_COUNT>
0

> <PUBCHEM_ATOM_UDEF_STEREO_COUNT>
0

> <PUBCHEM_BOND_DEF_STEREO_COUNT>
0

> <PUBCHEM_BOND_UDEF_STEREO_COUNT>
0

> <PUBCHEM_ISOTOPIC_ATOM_COUNT>
0

> <PUBCHEM_COMPONENT_COUNT>
1

> <PUBCHEM_CACTVS_TAUTO_COUNT>
1

> <PUBCHEM_COORDINATE_TYPE>
1
5
255

> <PUBCHEM_BONDANNOTATIONS>
13  14  8
13  16  8
14  17  8
16  18  8
17  19  8
18  19  8
2  20  8
2  23  8
20  21  8
21  22  8
22  23  8

$$$$

