11964
  -OEChem-06261206203D

 40 40  0     0  0  0  0  0  0999 V2000
    0.8129   -0.4084   -0.0329 O   0  0  0  0  0  0  0  0  0  0  0  0
    1.8881   -2.4247   -0.3124 O   0  0  0  0  0  0  0  0  0  0  0  0
   -2.8606   -0.6260   -0.0285 N   0  0  0  0  0  0  0  0  0  0  0  0
    6.6736    1.8055    0.1780 N   0  0  0  0  0  0  0  0  0  0  0  0
   -5.2873   -0.2839    0.0004 C   0  0  0  0  0  0  0  0  0  0  0  0
   -6.4073    0.7554    0.0860 C   0  0  0  0  0  0  0  0  0  0  0  0
   -3.9126    0.3783    0.0753 C   0  0  0  0  0  0  0  0  0  0  0  0
   -7.7846    0.0936    0.0471 C   0  0  0  0  0  0  0  0  0  0  0  0
   -1.5440   -0.0094    0.0520 C   0  0  0  0  0  0  0  0  0  0  0  0
   -8.9000    1.1255    0.0984 C   0  0  0  0  0  0  0  0  0  0  0  0
   -0.4512   -1.0552   -0.1004 C   0  0  0  0  0  0  0  0  0  0  0  0
    3.1562   -0.4207   -0.0653 C   0  0  0  0  0  0  0  0  0  0  0  0
    1.9042   -1.2139   -0.1536 C   0  0  0  0  0  0  0  0  0  0  0  0
    4.2884   -1.0168    0.4514 C   0  0  0  0  0  0  0  0  0  0  0  0
    3.1494    0.8877   -0.5037 C   0  0  0  0  0  0  0  0  0  0  0  0
    5.4838    1.0526    0.0967 C   0  0  0  0  0  0  0  0  0  0  0  0
    5.4649   -0.2720    0.5333 C   0  0  0  0  0  0  0  0  0  0  0  0
    4.3260    1.6324   -0.4218 C   0  0  0  0  0  0  0  0  0  0  0  0
   -5.3823   -0.8431   -0.9390 H   0  0  0  0  0  0  0  0  0  0  0  0
   -5.3946   -1.0070    0.8189 H   0  0  0  0  0  0  0  0  0  0  0  0
   -6.3147    1.4630   -0.7470 H   0  0  0  0  0  0  0  0  0  0  0  0
   -6.3050    1.3327    1.0130 H   0  0  0  0  0  0  0  0  0  0  0  0
   -3.8246    0.9163    1.0269 H   0  0  0  0  0  0  0  0  0  0  0  0
   -3.8176    1.1109   -0.7356 H   0  0  0  0  0  0  0  0  0  0  0  0
   -7.8910   -0.5951    0.8933 H   0  0  0  0  0  0  0  0  0  0  0  0
   -7.8871   -0.4996   -0.8690 H   0  0  0  0  0  0  0  0  0  0  0  0
   -2.9528   -1.1304   -0.9099 H   0  0  0  0  0  0  0  0  0  0  0  0
   -1.4151    0.5037    1.0132 H   0  0  0  0  0  0  0  0  0  0  0  0
   -1.4196    0.7521   -0.7284 H   0  0  0  0  0  0  0  0  0  0  0  0
   -9.8758    0.6305    0.0704 H   0  0  0  0  0  0  0  0  0  0  0  0
   -8.8451    1.7168    1.0180 H   0  0  0  0  0  0  0  0  0  0  0  0
   -8.8416    1.8094   -0.7544 H   0  0  0  0  0  0  0  0  0  0  0  0
   -0.5234   -1.7984    0.7032 H   0  0  0  0  0  0  0  0  0  0  0  0
   -0.5449   -1.5645   -1.0675 H   0  0  0  0  0  0  0  0  0  0  0  0
    4.2853   -2.0462    0.7974 H   0  0  0  0  0  0  0  0  0  0  0  0
    2.2653    1.3580   -0.9239 H   0  0  0  0  0  0  0  0  0  0  0  0
    6.3606   -0.7350    0.9398 H   0  0  0  0  0  0  0  0  0  0  0  0
    4.3289    2.6628   -0.7684 H   0  0  0  0  0  0  0  0  0  0  0  0
    7.5129    1.3865    0.5560 H   0  0  0  0  0  0  0  0  0  0  0  0
    6.6870    2.7666   -0.1363 H   0  0  0  0  0  0  0  0  0  0  0  0
  1 11  1  0  0  0  0
  1 13  1  0  0  0  0
  2 13  2  0  0  0  0
  3  7  1  0  0  0  0
  3  9  1  0  0  0  0
  3 27  1  0  0  0  0
  4 16  1  0  0  0  0
  4 39  1  0  0  0  0
  4 40  1  0  0  0  0
  5  6  1  0  0  0  0
  5  7  1  0  0  0  0
  5 19  1  0  0  0  0
  5 20  1  0  0  0  0
  6  8  1  0  0  0  0
  6 21  1  0  0  0  0
  6 22  1  0  0  0  0
  7 23  1  0  0  0  0
  7 24  1  0  0  0  0
  8 10  1  0  0  0  0
  8 25  1  0  0  0  0
  8 26  1  0  0  0  0
  9 11  1  0  0  0  0
  9 28  1  0  0  0  0
  9 29  1  0  0  0  0
 10 30  1  0  0  0  0
 10 31  1  0  0  0  0
 10 32  1  0  0  0  0
 11 33  1  0  0  0  0
 11 34  1  0  0  0  0
 12 13  1  0  0  0  0
 12 14  2  0  0  0  0
 12 15  1  0  0  0  0
 14 17  1  0  0  0  0
 14 35  1  0  0  0  0
 15 18  2  0  0  0  0
 15 36  1  0  0  0  0
 16 17  2  0  0  0  0
 16 18  1  0  0  0  0
 17 37  1  0  0  0  0
 18 38  1  0  0  0  0
M  END
> <PUBCHEM_COMPOUND_CID>
11964

> <PUBCHEM_CONFORMER_RMSD>
1

> <PUBCHEM_CONFORMER_DIVERSEORDER>
1
270
210
69
31
147
95
2
37
118
358
63
500
244
10
182
190
5
258
455
179
208
68
127
4
136
212
290
181
32
11
74
362
225
461
28
81
121
112
115
8
318
255
138
96
47
175
25
437
43
144
29
58
186
223
17
50
433
336
293
14
300
380
110
12
296
35
161
119
334
124
22
34
59
166

> <PUBCHEM_MMFF94_PARTIAL_CHARGES>
21
1 -0.43
11 0.28
12 0.09
13 0.63
14 -0.15
15 -0.15
16 0.1
17 -0.15
18 -0.15
2 -0.57
27 0.36
3 -0.9
35 0.15
36 0.15
37 0.15
38 0.15
39 0.4
4 -0.9
40 0.4
7 0.27
9 0.27

> <PUBCHEM_EFFECTIVE_ROTOR_COUNT>
9

> <PUBCHEM_PHARMACOPHORE_FEATURES>
7
1 10 hydrophobe
1 2 acceptor
1 3 cation
1 3 donor
1 4 cation
1 4 donor
6 12 14 15 16 17 18 rings

> <PUBCHEM_HEAVY_ATOM_COUNT>
18

> <PUBCHEM_ATOM_DEF_STEREO_COUNT>
0

> <PUBCHEM_ATOM_UDEF_STEREO_COUNT>
0

> <PUBCHEM_BOND_DEF_STEREO_COUNT>
0

> <PUBCHEM_BOND_UDEF_STEREO_COUNT>
0

> <PUBCHEM_ISOTOPIC_ATOM_COUNT>
0

> <PUBCHEM_COMPONENT_COUNT>
1

> <PUBCHEM_CACTVS_TAUTO_COUNT>
2

> <PUBCHEM_CONFORMER_ID>
00002EBC00000001

> <PUBCHEM_MMFF94_ENERGY>
34.023

> <PUBCHEM_FEATURE_SELFOVERLAP>
35.52

> <PUBCHEM_SHAPE_FINGERPRINT>
10354089 29 18131633374859740020
10411042 1 17978792643317629666
106641 1 12895071791670117468
10688039 33 17418097641376819836
11315181 36 18187363239259651617
11638347 137 16917352558111610459
11724838 91 18271526407946079487
125118 31 18131066069894500669
13073987 5 16988290892937413389
13167372 99 18338516447143679793
13668630 136 9511465524236435297
13685833 64 9007057967934659759
13885169 127 9079125449583798267
14123256 10 17894348887145275713
14251764 18 18411419501852680397
14251764 46 18114181943525830986
14429380 56 18340779165344474189
14461889 52 18131063802109466787
14729087 3 17775009020886061589
15048467 5 18335421262087506893
15475509 35 16056336024278044722
155225 1 18334858298764556313
15690457 1 11527945639179398193
19427546 62 18412542085465138822
20157964 124 18411136960954200306
20281389 69 18202566202809703917
20735858 18 15123511406706854969
21130983 4 18334856126180367825
21150785 3 16008749104892753433
220451 1 16732988648360291239
221357 26 7420948660066309027
2215653 11 7060374825770020685
22224240 67 17846780707140219635
246663 6 7565343150540364677
300161 21 18411138039655623367
33532 11 8935001465045784949
4073 2 18202278074786695099
4325135 7 18333450954520247845
4340502 62 17418093234782415907
465052 167 10592041371142810712
6025842 7 18186799227046919478
67123 10 18410293615511039669

> <PUBCHEM_SHAPE_MULTIPOLES>
348.73
23.62
1.63
0.66
45.37
0.14
0
-11.36
2.09
-2.3
-0.12
-0.21
-0.01
-0.25

> <PUBCHEM_SHAPE_SELFOVERLAP>
693.244

> <PUBCHEM_SHAPE_VOLUME>
207.7

> <PUBCHEM_COORDINATE_TYPE>
2
5
10

$$$$

