12773
  -OEChem-06261207212D

 17 17  0     0  0  0  0  0  0999 V2000
    2.5123   -0.4464    0.0000 O   0  0  0  0  0  0  0  0  0  0  0  0
    3.9726   -1.6110    0.0000 O   0  0  0  0  0  0  0  0  0  0  0  0
    6.6039    0.4875    0.0000 N   0  0  0  0  0  0  0  0  0  0  0  0
    5.6039    0.4875    0.0000 C   0  0  0  0  0  0  0  0  0  0  0  0
    5.1700   -0.4135    0.0000 C   0  0  0  0  0  0  0  0  0  0  0  0
    5.1700    1.3884    0.0000 C   0  0  0  0  0  0  0  0  0  0  0  0
    3.4132   -0.0125    0.0000 C   0  0  0  0  0  0  0  0  0  0  0  0
    4.1951   -0.6360    0.0000 C   0  0  0  0  0  0  0  0  0  0  0  0
    3.4132    0.9875    0.0000 C   0  0  0  0  0  0  0  0  0  0  0  0
    4.1951    1.6110    0.0000 C   0  0  0  0  0  0  0  0  0  0  0  0
    5.5566   -0.8982    0.0000 H   0  0  0  0  0  0  0  0  0  0  0  0
    5.5566    1.8732    0.0000 H   0  0  0  0  0  0  0  0  0  0  0  0
    2.8546    1.2565    0.0000 H   0  0  0  0  0  0  0  0  0  0  0  0
    4.0571    2.2154    0.0000 H   0  0  0  0  0  0  0  0  0  0  0  0
    6.9139    1.0244    0.0000 H   0  0  0  0  0  0  0  0  0  0  0  0
    6.9139   -0.0495    0.0000 H   0  0  0  0  0  0  0  0  0  0  0  0
    2.0000   -0.0972    0.0000 H   0  0  0  0  0  0  0  0  0  0  0  0
  1  7  1  0  0  0  0
  1 17  1  0  0  0  0
  2  8  2  0  0  0  0
  3  4  1  0  0  0  0
  3 15  1  0  0  0  0
  3 16  1  0  0  0  0
  4  5  2  0  0  0  0
  4  6  1  0  0  0  0
  5  8  1  0  0  0  0
  5 11  1  0  0  0  0
  6 10  2  0  0  0  0
  6 12  1  0  0  0  0
  7  8  1  0  0  0  0
  7  9  2  0  0  0  0
  9 10  1  0  0  0  0
  9 13  1  0  0  0  0
 10 14  1  0  0  0  0
M  END
> <PUBCHEM_COMPOUND_CID>
12773

> <PUBCHEM_COMPOUND_CANONICALIZED>
1

> <PUBCHEM_CACTVS_COMPLEXITY>
248

> <PUBCHEM_CACTVS_HBOND_ACCEPTOR>
3

> <PUBCHEM_CACTVS_HBOND_DONOR>
2

> <PUBCHEM_CACTVS_ROTATABLE_BOND>
0

> <PUBCHEM_CACTVS_SUBSKEYS>
AAADcYBiMAAAAAAAAAAAAAAAAAAAAAAAAAAAAAAABAAAAAAAAAAAHgAQCAAACAyBgAAAAABAAgCIAKRSQAKAAAAgIgAICABAAEgIAAAAAQAAQAAAUAAIgcIAAAAAAAAAAAAAAAAAAAAAAAAAAAAAAAAAAA==

> <PUBCHEM_IUPAC_OPENEYE_NAME>
6-amino-2-hydroxy-cyclohepta-2,4,6-trien-1-one

> <PUBCHEM_IUPAC_CAS_NAME>
6-amino-2-hydroxy-1-cyclohepta-2,4,6-trienone

> <PUBCHEM_IUPAC_NAME>
6-amino-2-hydroxycyclohepta-2,4,6-trien-1-one

> <PUBCHEM_IUPAC_SYSTEMATIC_NAME>
6-azanyl-2-oxidanyl-cyclohepta-2,4,6-trien-1-one

> <PUBCHEM_IUPAC_TRADITIONAL_NAME>
6-amino-2-hydroxy-cyclohepta-2,4,6-trien-1-one

> <PUBCHEM_IUPAC_INCHI>
InChI=1S/C7H7NO2/c8-5-2-1-3-6(9)7(10)4-5/h1-4H,8H2,(H,9,10)

> <PUBCHEM_IUPAC_INCHIKEY>
JKYMBLYJMSXPCM-UHFFFAOYSA-N

> <PUBCHEM_XLOGP3_AA>
0.5

> <PUBCHEM_EXACT_MASS>
137.047678

> <PUBCHEM_MOLECULAR_FORMULA>
C7H7NO2

> <PUBCHEM_MOLECULAR_WEIGHT>
137.13598

> <PUBCHEM_OPENEYE_CAN_SMILES>
C1=CC(=CC(=O)C(=C1)O)N

> <PUBCHEM_OPENEYE_ISO_SMILES>
C1=CC(=CC(=O)C(=C1)O)N

> <PUBCHEM_CACTVS_TPSA>
63.3

> <PUBCHEM_MONOISOTOPIC_WEIGHT>
137.047678

> <PUBCHEM_TOTAL_CHARGE>
0

> <PUBCHEM_HEAVY_ATOM_COUNT>
10

> <PUBCHEM_ATOM_DEF_STEREO_COUNT>
0

> <PUBCHEM_ATOM_UDEF_STEREO_COUNT>
0

> <PUBCHEM_BOND_DEF_STEREO_COUNT>
0

> <PUBCHEM_BOND_UDEF_STEREO_COUNT>
0

> <PUBCHEM_ISOTOPIC_ATOM_COUNT>
0

> <PUBCHEM_COMPONENT_COUNT>
1

> <PUBCHEM_CACTVS_TAUTO_COUNT>
11

> <PUBCHEM_COORDINATE_TYPE>
1
5
255

> <PUBCHEM_BONDANNOTATIONS>
4  5  8
4  6  8
5  8  8
6  10  8
7  8  8
7  9  8
9  10  8

$$$$

