3656
  -OEChem-06251223343D

 37 37  0     0  0  0  0  0  0999 V2000
    0.5222    2.4670    0.2729 S   0  0  0  0  0  0  0  0  0  0  0  0
    0.4091    3.0972   -1.0283 O   0  0  0  0  0  0  0  0  0  0  0  0
    1.0252    3.2129    1.4102 O   0  0  0  0  0  0  0  0  0  0  0  0
   -1.7269    1.2017   -1.4555 O   0  0  0  0  0  0  0  0  0  0  0  0
    3.2483   -3.5746   -0.0410 O   0  0  0  0  0  0  0  0  0  0  0  0
   -3.0431    0.6878    0.3752 N   0  0  0  0  0  0  0  0  0  0  0  0
   -0.9733    1.7492    0.6864 N   0  0  0  0  0  0  0  0  0  0  0  0
   -3.9353   -1.4184   -0.5357 C   0  0  0  0  0  0  0  0  0  0  0  0
   -4.1283    0.0824   -0.3459 C   0  0  0  0  0  0  0  0  0  0  0  0
   -3.8587   -2.1741    0.7929 C   0  0  0  0  0  0  0  0  0  0  0  0
    1.5483    1.0378    0.1047 C   0  0  0  0  0  0  0  0  0  0  0  0
   -3.7268   -3.6729    0.5723 C   0  0  0  0  0  0  0  0  0  0  0  0
    3.1548   -1.2011   -0.1592 C   0  0  0  0  0  0  0  0  0  0  0  0
    2.2307    0.5613    1.2108 C   0  0  0  0  0  0  0  0  0  0  0  0
    1.6504    0.4209   -1.1302 C   0  0  0  0  0  0  0  0  0  0  0  0
   -1.9160    1.2051   -0.2428 C   0  0  0  0  0  0  0  0  0  0  0  0
    3.0403   -0.5669    1.0777 C   0  0  0  0  0  0  0  0  0  0  0  0
    2.4599   -0.7073   -1.2633 C   0  0  0  0  0  0  0  0  0  0  0  0
    4.0192   -2.4080   -0.3013 C   0  0  0  0  0  0  0  0  0  0  0  0
   -3.0193   -1.6028   -1.1108 H   0  0  0  0  0  0  0  0  0  0  0  0
   -4.7711   -1.8075   -1.1294 H   0  0  0  0  0  0  0  0  0  0  0  0
   -5.0460    0.2815    0.2176 H   0  0  0  0  0  0  0  0  0  0  0  0
   -4.2239    0.5669   -1.3238 H   0  0  0  0  0  0  0  0  0  0  0  0
   -4.7593   -1.9763    1.3856 H   0  0  0  0  0  0  0  0  0  0  0  0
   -3.0004   -1.8279    1.3797 H   0  0  0  0  0  0  0  0  0  0  0  0
   -3.1033    0.7336    1.3878 H   0  0  0  0  0  0  0  0  0  0  0  0
   -1.2288    1.7465    1.6819 H   0  0  0  0  0  0  0  0  0  0  0  0
    2.1483    1.0351    2.1840 H   0  0  0  0  0  0  0  0  0  0  0  0
    1.1144    0.7874   -2.0002 H   0  0  0  0  0  0  0  0  0  0  0  0
   -2.8188   -3.9078    0.0078 H   0  0  0  0  0  0  0  0  0  0  0  0
   -3.6740   -4.1942    1.5333 H   0  0  0  0  0  0  0  0  0  0  0  0
   -4.5865   -4.0656    0.0200 H   0  0  0  0  0  0  0  0  0  0  0  0
    3.5737   -0.9444    1.9461 H   0  0  0  0  0  0  0  0  0  0  0  0
    2.5387   -1.1944   -2.2316 H   0  0  0  0  0  0  0  0  0  0  0  0
    4.4355   -2.4772   -1.3124 H   0  0  0  0  0  0  0  0  0  0  0  0
    4.8597   -2.3751    0.4007 H   0  0  0  0  0  0  0  0  0  0  0  0
    3.8428   -4.3373   -0.1426 H   0  0  0  0  0  0  0  0  0  0  0  0
  1  2  2  0  0  0  0
  1  3  2  0  0  0  0
  1  7  1  0  0  0  0
  1 11  1  0  0  0  0
  4 16  2  0  0  0  0
  5 19  1  0  0  0  0
  5 37  1  0  0  0  0
  6  9  1  0  0  0  0
  6 16  1  0  0  0  0
  6 26  1  0  0  0  0
  7 16  1  0  0  0  0
  7 27  1  0  0  0  0
  8  9  1  0  0  0  0
  8 10  1  0  0  0  0
  8 20  1  0  0  0  0
  8 21  1  0  0  0  0
  9 22  1  0  0  0  0
  9 23  1  0  0  0  0
 10 12  1  0  0  0  0
 10 24  1  0  0  0  0
 10 25  1  0  0  0  0
 11 14  2  0  0  0  0
 11 15  1  0  0  0  0
 12 30  1  0  0  0  0
 12 31  1  0  0  0  0
 12 32  1  0  0  0  0
 13 17  2  0  0  0  0
 13 18  1  0  0  0  0
 13 19  1  0  0  0  0
 14 17  1  0  0  0  0
 14 28  1  0  0  0  0
 15 18  2  0  0  0  0
 15 29  1  0  0  0  0
 17 33  1  0  0  0  0
 18 34  1  0  0  0  0
 19 35  1  0  0  0  0
 19 36  1  0  0  0  0
M  END
> <PUBCHEM_COMPOUND_CID>
3656

> <PUBCHEM_CONFORMER_RMSD>
0.8

> <PUBCHEM_CONFORMER_DIVERSEORDER>
1
128
64
61
127
119
89
84
42
79
91
47
55
103
75
126
66
28
18
53
109
118
57
40
7
50
121
80
74
116
39
68
95
110
51
90
122
92
52
72
129
29
33
59
25
15
41
113
123
34
37
88
131
49
112
132
36
14
85
106
94
65
26
130
71
43
63
83
67
124
134
100
44
30
11
117
76
31
107
13
23
54
19
22
17
104
46
125
5
81
78
16
87
133
45
120
58
114
27
10
69
4
35
38
77
21
111
12
82
8
62
73
108
20
32
101
105
102
24
6
70
86
56
97
98
115
60
9
2
3
48
93
96
99

> <PUBCHEM_MMFF94_PARTIAL_CHARGES>
23
1 1.45
11 -0.01
13 -0.14
14 -0.15
15 -0.15
16 0.87
17 -0.15
18 -0.15
19 0.42
2 -0.65
26 0.37
27 0.42
28 0.15
29 0.15
3 -0.65
33 0.15
34 0.15
37 0.4
4 -0.57
5 -0.68
6 -0.73
7 -0.79
9 0.3

> <PUBCHEM_EFFECTIVE_ROTOR_COUNT>
8

> <PUBCHEM_PHARMACOPHORE_FEATURES>
9
1 12 hydrophobe
1 2 acceptor
1 3 acceptor
1 4 acceptor
1 5 acceptor
1 5 donor
1 6 donor
1 7 donor
6 11 13 14 15 17 18 rings

> <PUBCHEM_HEAVY_ATOM_COUNT>
19

> <PUBCHEM_ATOM_DEF_STEREO_COUNT>
0

> <PUBCHEM_ATOM_UDEF_STEREO_COUNT>
0

> <PUBCHEM_BOND_DEF_STEREO_COUNT>
0

> <PUBCHEM_BOND_UDEF_STEREO_COUNT>
0

> <PUBCHEM_ISOTOPIC_ATOM_COUNT>
0

> <PUBCHEM_COMPONENT_COUNT>
1

> <PUBCHEM_CACTVS_TAUTO_COUNT>
3

> <PUBCHEM_CONFORMER_ID>
00000E4800000001

> <PUBCHEM_MMFF94_ENERGY>
10.1745

> <PUBCHEM_FEATURE_SELFOVERLAP>
45.73

> <PUBCHEM_SHAPE_FINGERPRINT>
114674 6 18196936561120012435
117890 22 18338235934582398283
12363563 72 18335700584826685845
12506688 2 18408602535302265265
12633257 1 18261376893609420507
12969540 37 18339645520862152692
12990986 174 18340772649378237682
13122387 1 18050848810635007619
13257819 37 17193175787711823476
13533116 47 18190740839679259051
13965767 371 6266630745458344251
14251705 54 18410292476015910419
14251731 5 18411411808954739219
14863182 85 17692525620436806869
14866123 147 18048032158708345209
14916288 52 18411135831657551691
15352361 1 18410293635630752071
15422964 175 18409177601115978337
17134986 127 10375871887543129344
20291156 8 18410574036706967455
20645477 70 18193570977981598741
20775530 9 18413387661356880867
21315759 227 18129953252020483907
21864079 5 9079117735115588035
221490 88 18339640031999599467
23379529 103 18264759029836623102
23503958 25 8285922440529950183
23559900 14 18340774719826430021
463206 1 18342454902163545011
5486654 36 18339344336808093915
6433294 58 18195523693031341899
7987 15 17914599580552453171
9709674 26 18337962177856798551

> <PUBCHEM_SHAPE_MULTIPOLES>
361.42
8.3
4.31
1.24
6.81
1.55
-0.04
8.74
0.29
-0.42
0.6
-0.39
-0.36
1.16

> <PUBCHEM_SHAPE_SELFOVERLAP>
714.765

> <PUBCHEM_SHAPE_VOLUME>
214.3

> <PUBCHEM_COORDINATE_TYPE>
2
5
10

$$$$

