47205620
  -OEChem-06241222593D

 31 32  0     0  0  0  0  0  0999 V2000
   -1.1116   -0.9880   -0.0709 O   0  0  0  0  0  0  0  0  0  0  0  0
    4.3499    1.8164   -0.5962 O   0  0  0  0  0  0  0  0  0  0  0  0
    1.6805   -2.1137    1.0511 O   0  0  0  0  0  0  0  0  0  0  0  0
   -0.3315   -3.0581   -0.7833 O   0  0  0  0  0  0  0  0  0  0  0  0
    1.5573   -0.3449   -0.5202 N   0  0  0  0  0  0  0  0  0  0  0  0
    3.0965    1.4397   -1.0633 N   0  0  0  0  0  0  0  0  0  0  0  0
   -3.3427   -0.1663   -0.1296 C   0  0  0  0  0  0  0  0  0  0  0  0
   -2.4449   -1.3153   -0.4423 C   0  0  0  0  0  0  0  0  0  0  0  0
   -3.9583   -0.0813    1.1193 C   0  0  0  0  0  0  0  0  0  0  0  0
   -3.5664    0.8239   -1.0861 C   0  0  0  0  0  0  0  0  0  0  0  0
    2.7733    0.3567   -0.3509 C   0  0  0  0  0  0  0  0  0  0  0  0
    4.7427    0.9554    0.3771 C   0  0  0  0  0  0  0  0  0  0  0  0
    3.7742    0.0066    0.5718 C   0  0  0  0  0  0  0  0  0  0  0  0
   -4.7976    0.9938    1.4116 C   0  0  0  0  0  0  0  0  0  0  0  0
   -4.4055    1.8991   -0.7938 C   0  0  0  0  0  0  0  0  0  0  0  0
   -5.0212    1.9840    0.4551 C   0  0  0  0  0  0  0  0  0  0  0  0
    1.1442   -1.4658    0.1680 C   0  0  0  0  0  0  0  0  0  0  0  0
   -0.1938   -1.9501   -0.3034 C   0  0  0  0  0  0  0  0  0  0  0  0
    6.0548    1.2078    0.9859 C   0  0  0  0  0  0  0  0  0  0  0  0
   -2.7728   -2.2107    0.1012 H   0  0  0  0  0  0  0  0  0  0  0  0
   -2.4857   -1.5467   -1.5144 H   0  0  0  0  0  0  0  0  0  0  0  0
   -3.7903   -0.8452    1.8739 H   0  0  0  0  0  0  0  0  0  0  0  0
   -3.0909    0.7704   -2.0619 H   0  0  0  0  0  0  0  0  0  0  0  0
    3.8129   -0.8055    1.2820 H   0  0  0  0  0  0  0  0  0  0  0  0
   -5.2765    1.0603    2.3841 H   0  0  0  0  0  0  0  0  0  0  0  0
   -4.5793    2.6706   -1.5383 H   0  0  0  0  0  0  0  0  0  0  0  0
    0.9492    0.0454   -1.2359 H   0  0  0  0  0  0  0  0  0  0  0  0
   -5.6744    2.8213    0.6826 H   0  0  0  0  0  0  0  0  0  0  0  0
    6.8446    1.1644    0.2296 H   0  0  0  0  0  0  0  0  0  0  0  0
    6.0787    2.1976    1.4521 H   0  0  0  0  0  0  0  0  0  0  0  0
    6.2824    0.4647    1.7565 H   0  0  0  0  0  0  0  0  0  0  0  0
  1  8  1  0  0  0  0
  1 18  1  0  0  0  0
  2  6  1  0  0  0  0
  2 12  1  0  0  0  0
  3 17  2  0  0  0  0
  4 18  2  0  0  0  0
  5 11  1  0  0  0  0
  5 17  1  0  0  0  0
  5 27  1  0  0  0  0
  6 11  2  0  0  0  0
  7  8  1  0  0  0  0
  7  9  2  0  0  0  0
  7 10  1  0  0  0  0
  8 20  1  0  0  0  0
  8 21  1  0  0  0  0
  9 14  1  0  0  0  0
  9 22  1  0  0  0  0
 10 15  2  0  0  0  0
 10 23  1  0  0  0  0
 11 13  1  0  0  0  0
 12 13  2  0  0  0  0
 12 19  1  0  0  0  0
 13 24  1  0  0  0  0
 14 16  2  0  0  0  0
 14 25  1  0  0  0  0
 15 16  1  0  0  0  0
 15 26  1  0  0  0  0
 16 28  1  0  0  0  0
 17 18  1  0  0  0  0
 19 29  1  0  0  0  0
 19 30  1  0  0  0  0
 19 31  1  0  0  0  0
M  END
> <PUBCHEM_COMPOUND_CID>
47205620

> <PUBCHEM_CONFORMER_RMSD>
0.8

> <PUBCHEM_CONFORMER_DIVERSEORDER>
1
58
33
25
60
47
34
6
56
48
44
19
40
26
23
51
49
55
18
43
5
21
8
16
15
52
61
32
42
45
35
41
59
57
24
10
53
2
50
11
3
54
46
29
7
13
30
12
14
38
20
9
39
36
27
22
28
31
37
17
4

> <PUBCHEM_MMFF94_PARTIAL_CHARGES>
26
1 -0.43
10 -0.15
11 0.35
12 -0.04
13 -0.15
14 -0.15
15 -0.15
16 -0.15
17 0.63
18 0.72
19 0.18
2 -0.02
22 0.15
23 0.15
24 0.15
25 0.15
26 0.15
27 0.37
28 0.15
3 -0.57
4 -0.57
5 -0.49
6 -0.41
7 -0.14
8 0.42
9 -0.15

> <PUBCHEM_EFFECTIVE_ROTOR_COUNT>
6

> <PUBCHEM_PHARMACOPHORE_FEATURES>
5
1 3 acceptor
1 4 acceptor
1 5 donor
5 2 6 11 12 13 rings
6 7 9 10 14 15 16 rings

> <PUBCHEM_HEAVY_ATOM_COUNT>
19

> <PUBCHEM_ATOM_DEF_STEREO_COUNT>
0

> <PUBCHEM_ATOM_UDEF_STEREO_COUNT>
0

> <PUBCHEM_BOND_DEF_STEREO_COUNT>
0

> <PUBCHEM_BOND_UDEF_STEREO_COUNT>
0

> <PUBCHEM_ISOTOPIC_ATOM_COUNT>
0

> <PUBCHEM_COMPONENT_COUNT>
1

> <PUBCHEM_CACTVS_TAUTO_COUNT>
8

> <PUBCHEM_CONFORMER_ID>
02D04CF400000001

> <PUBCHEM_MMFF94_ENERGY>
32.5011

> <PUBCHEM_FEATURE_SELFOVERLAP>
25.374

> <PUBCHEM_SHAPE_FINGERPRINT>
10042902 136 11383823870596349768
10498660 4 18040715883323993265
10968037 57 10591755490041551773
11135609 201 18113613487355784819
12363563 72 9871745810650194679
12403259 118 18060134319569767333
12422481 6 18058188270109255568
12596602 18 15482667953177062108
12633257 1 16128367151709498905
12978246 48 18342171150748775941
13103583 49 12607125174890138933
13544653 18 9799690389539015326
13583140 156 16630261246041788327
14123255 352 18411421713106846493
14123255 52 18409729564680031287
1420 369 10735871768595930753
14251764 30 12535358925980662128
14251764 38 17753060392835154600
14341114 328 16916774176451691141
14576447 43 7853579015470285652
14848178 5 9151174220761751212
14950920 106 16271928181567172025
15188451 53 14979664461124843961
15342168 16 18189611812904076821
1741750 31 18335137561875157967
17780758 139 13542473080862053133
17870717 6 6627747778218680185
1798214 20 8070028843811148949
1798214 55 18408882949300637165
18222031 100 10663818546681638440
193927 3 10231754517512824969
19784866 34 18260265287184849459
20291156 8 9367344834022415775
20621476 21 12390694012303571224
20621476 66 18340764846071318796
20871999 31 6194569891582384450
21065199 12 17703221936213992907
21401589 2 18411132528974992035
21713013 43 5833698064087016433
21864079 5 18264488567308345013
23403322 49 8790882974086895725
235170 7 15213016059433303893
270888 7 18261674861070910177
27216 239 18272646853655652843
2838139 119 17822297868496803112
2916195 48 18041002791349937384
314194 84 10159689214119454796
3459 39 18262258650205515736
351380 3 10159696902042576833
4259306 186 8358258137699816905
474 4 18338236076295259027
5104073 3 18130219484558265803
633830 44 17969215801890225703
636775 72 17762057641426799232
7226269 152 18187647977494168328
76465 3 10807923861097107803
7808743 9 18336267851211690347
7970288 3 10591755485261918441
79837 15 18058448699451746154

> <PUBCHEM_SHAPE_MULTIPOLES>
357.57
13.3
2.54
1.14
5.36
1.2
-0.14
-11.21
-3.05
-0.26
0.32
-0.56
-0.23
-0.27

> <PUBCHEM_SHAPE_SELFOVERLAP>
756.839

> <PUBCHEM_SHAPE_VOLUME>
197.8

> <PUBCHEM_COORDINATE_TYPE>
2
5
10

$$$$

