17395585
  -OEChem-06241222512D

 29 29  0     1  0  0  0  0  0999 V2000
    5.0270   -0.5146    0.0000 S   0  0  0  0  0  0  0  0  0  0  0  0
    6.7871   -0.7934    0.0000 S   0  0  0  0  0  0  0  0  0  0  0  0
    3.1249   -1.1327    0.0000 O   0  0  0  0  0  0  0  0  0  0  0  0
    8.5472   -0.5146    0.0000 N   0  0  0  0  0  0  0  0  0  0  0  0
    7.2871    0.7455    0.0000 N   0  0  0  0  0  0  0  0  0  0  0  0
    6.2871    0.7455    0.0000 N   0  0  0  0  0  0  0  0  0  0  0  0
    2.5896    0.5146    0.0000 N   0  0  0  0  0  0  0  0  0  0  0  0
    9.2903    0.1545    0.0000 C   0  0  0  0  0  0  0  0  0  0  0  0
   10.2413   -0.1545    0.0000 C   0  0  0  0  0  0  0  0  0  0  0  0
    4.2839    0.1545    0.0000 C   0  0  3  0  0  0  0  0  0  0  0  0
   10.9845    0.5146    0.0000 C   0  0  0  0  0  0  0  0  0  0  0  0
    7.5961   -0.2056    0.0000 C   0  0  0  0  0  0  0  0  0  0  0  0
    4.4918    1.1327    0.0000 C   0  0  0  0  0  0  0  0  0  0  0  0
    5.9781   -0.2056    0.0000 C   0  0  0  0  0  0  0  0  0  0  0  0
    3.3328   -0.1545    0.0000 C   0  0  0  0  0  0  0  0  0  0  0  0
    9.5814    0.7019    0.0000 H   0  0  0  0  0  0  0  0  0  0  0  0
    8.8017    0.5362    0.0000 H   0  0  0  0  0  0  0  0  0  0  0  0
    9.9503   -0.7019    0.0000 H   0  0  0  0  0  0  0  0  0  0  0  0
   10.7299   -0.5362    0.0000 H   0  0  0  0  0  0  0  0  0  0  0  0
    4.8735    0.3461    0.0000 H   0  0  0  0  0  0  0  0  0  0  0  0
    8.6760   -1.1211    0.0000 H   0  0  0  0  0  0  0  0  0  0  0  0
   11.3994    0.0539    0.0000 H   0  0  0  0  0  0  0  0  0  0  0  0
   11.4452    0.9295    0.0000 H   0  0  0  0  0  0  0  0  0  0  0  0
   10.5696    0.9754    0.0000 H   0  0  0  0  0  0  0  0  0  0  0  0
    5.0982    1.0038    0.0000 H   0  0  0  0  0  0  0  0  0  0  0  0
    4.6207    1.7391    0.0000 H   0  0  0  0  0  0  0  0  0  0  0  0
    3.8853    1.2616    0.0000 H   0  0  0  0  0  0  0  0  0  0  0  0
    2.0000    0.3230    0.0000 H   0  0  0  0  0  0  0  0  0  0  0  0
    2.7186    1.1211    0.0000 H   0  0  0  0  0  0  0  0  0  0  0  0
  1 10  1  0  0  0  0
  1 14  1  0  0  0  0
  2 12  1  0  0  0  0
  2 14  1  0  0  0  0
  3 15  2  0  0  0  0
  4  8  1  0  0  0  0
  4 12  1  0  0  0  0
  4 21  1  0  0  0  0
  5  6  1  0  0  0  0
  5 12  2  0  0  0  0
  6 14  2  0  0  0  0
  7 15  1  0  0  0  0
  7 28  1  0  0  0  0
  7 29  1  0  0  0  0
  8  9  1  0  0  0  0
  8 16  1  0  0  0  0
  8 17  1  0  0  0  0
  9 11  1  0  0  0  0
  9 18  1  0  0  0  0
  9 19  1  0  0  0  0
 10 13  1  0  0  0  0
 10 15  1  0  0  0  0
 10 20  1  0  0  0  0
 11 22  1  0  0  0  0
 11 23  1  0  0  0  0
 11 24  1  0  0  0  0
 13 25  1  0  0  0  0
 13 26  1  0  0  0  0
 13 27  1  0  0  0  0
M  END
> <PUBCHEM_COMPOUND_CID>
17395585

> <PUBCHEM_COMPOUND_CANONICALIZED>
1

> <PUBCHEM_CACTVS_COMPLEXITY>
217

> <PUBCHEM_CACTVS_HBOND_ACCEPTOR>
6

> <PUBCHEM_CACTVS_HBOND_DONOR>
2

> <PUBCHEM_CACTVS_ROTATABLE_BOND>
6

> <PUBCHEM_CACTVS_SUBSKEYS>
AAADccBzoABgAAAAAAAAAAAAAAAAAWAAAAAAAAAAAAAAAAABgAAAHgQYAAAACADFwASDEALAAAguAAEQMAAQAQJAABkFAIEIAACAAAAACAAEAAAQEAIAAAAAAAAAAAAAAAAAAAAAAAAAAAAAAAAAAAAAAA==

> <PUBCHEM_IUPAC_OPENEYE_NAME>
2-[[5-(propylamino)-1,3,4-thiadiazol-2-yl]sulfanyl]propanamide

> <PUBCHEM_IUPAC_CAS_NAME>
2-[[5-(propylamino)-1,3,4-thiadiazol-2-yl]thio]propanamide

> <PUBCHEM_IUPAC_NAME>
2-[[5-(propylamino)-1,3,4-thiadiazol-2-yl]sulfanyl]propanamide

> <PUBCHEM_IUPAC_SYSTEMATIC_NAME>
2-[[5-(propylamino)-1,3,4-thiadiazol-2-yl]sulfanyl]propanamide

> <PUBCHEM_IUPAC_TRADITIONAL_NAME>
2-[[5-(propylamino)-1,3,4-thiadiazol-2-yl]thio]propionamide

> <PUBCHEM_IUPAC_INCHI>
InChI=1S/C8H14N4OS2/c1-3-4-10-7-11-12-8(15-7)14-5(2)6(9)13/h5H,3-4H2,1-2H3,(H2,9,13)(H,10,11)

> <PUBCHEM_IUPAC_INCHIKEY>
YUHSDZIUBGDOTH-UHFFFAOYSA-N

> <PUBCHEM_XLOGP3_AA>
1.8

> <PUBCHEM_EXACT_MASS>
246.060903

> <PUBCHEM_MOLECULAR_FORMULA>
C8H14N4OS2

> <PUBCHEM_MOLECULAR_WEIGHT>
246.35296

> <PUBCHEM_OPENEYE_CAN_SMILES>
CCCNC1=NN=C(S1)SC(C)C(=O)N

> <PUBCHEM_OPENEYE_ISO_SMILES>
CCCNC1=NN=C(S1)SC(C)C(=O)N

> <PUBCHEM_CACTVS_TPSA>
134

> <PUBCHEM_MONOISOTOPIC_WEIGHT>
246.060903

> <PUBCHEM_TOTAL_CHARGE>
0

> <PUBCHEM_HEAVY_ATOM_COUNT>
15

> <PUBCHEM_ATOM_DEF_STEREO_COUNT>
0

> <PUBCHEM_ATOM_UDEF_STEREO_COUNT>
1

> <PUBCHEM_BOND_DEF_STEREO_COUNT>
0

> <PUBCHEM_BOND_UDEF_STEREO_COUNT>
0

> <PUBCHEM_ISOTOPIC_ATOM_COUNT>
0

> <PUBCHEM_COMPONENT_COUNT>
1

> <PUBCHEM_CACTVS_TAUTO_COUNT>
6

> <PUBCHEM_COORDINATE_TYPE>
1
5
255

> <PUBCHEM_BONDANNOTATIONS>
10  13  3
2  12  8
2  14  8
5  12  8
5  6  8
6  14  8

$$$$

