6546
  -OEChem-06261201232D

 30 29  0     1  0  0  0  0  0999 V2000
    6.8671    1.2500    0.0000 O   0  0  0  0  0  0  0  0  0  0  0  0
    2.5369   -1.2500    0.0000 O   0  0  0  0  0  0  0  0  0  0  0  0
    3.4030   -0.7500    0.0000 C   0  0  3  0  0  0  0  0  0  0  0  0
    6.0010    0.7500    0.0000 C   0  0  3  0  0  0  0  0  0  0  0  0
    6.5010   -0.1160    0.0000 C   0  0  0  0  0  0  0  0  0  0  0  0
    2.9030    0.1160    0.0000 C   0  0  0  0  0  0  0  0  0  0  0  0
    3.9030   -1.6160    0.0000 C   0  0  0  0  0  0  0  0  0  0  0  0
    5.5010    1.6160    0.0000 C   0  0  0  0  0  0  0  0  0  0  0  0
    4.2690   -0.2500    0.0000 C   0  0  0  0  0  0  0  0  0  0  0  0
    5.1350    0.2500    0.0000 C   0  0  0  0  0  0  0  0  0  0  0  0
    7.5010   -0.1160    0.0000 C   0  0  0  0  0  0  0  0  0  0  0  0
    3.4030    0.9821    0.0000 C   0  0  0  0  0  0  0  0  0  0  0  0
    2.4280    0.5146    0.0000 H   0  0  0  0  0  0  0  0  0  0  0  0
    2.4280   -0.2825    0.0000 H   0  0  0  0  0  0  0  0  0  0  0  0
    5.9184   -0.3281    0.0000 H   0  0  0  0  0  0  0  0  0  0  0  0
    6.6087   -0.7266    0.0000 H   0  0  0  0  0  0  0  0  0  0  0  0
    3.3660   -1.9260    0.0000 H   0  0  0  0  0  0  0  0  0  0  0  0
    4.2130   -2.1530    0.0000 H   0  0  0  0  0  0  0  0  0  0  0  0
    4.4399   -1.3060    0.0000 H   0  0  0  0  0  0  0  0  0  0  0  0
    6.0380    1.9260    0.0000 H   0  0  0  0  0  0  0  0  0  0  0  0
    5.1910    2.1530    0.0000 H   0  0  0  0  0  0  0  0  0  0  0  0
    4.9641    1.3060    0.0000 H   0  0  0  0  0  0  0  0  0  0  0  0
    7.5010   -0.7360    0.0000 H   0  0  0  0  0  0  0  0  0  0  0  0
    8.1210   -0.1160    0.0000 H   0  0  0  0  0  0  0  0  0  0  0  0
    7.5010    0.5040    0.0000 H   0  0  0  0  0  0  0  0  0  0  0  0
    3.9399    0.6721    0.0000 H   0  0  0  0  0  0  0  0  0  0  0  0
    3.7130    1.5190    0.0000 H   0  0  0  0  0  0  0  0  0  0  0  0
    2.8660    1.2920    0.0000 H   0  0  0  0  0  0  0  0  0  0  0  0
    7.4040    0.9400    0.0000 H   0  0  0  0  0  0  0  0  0  0  0  0
    2.0000   -0.9400    0.0000 H   0  0  0  0  0  0  0  0  0  0  0  0
  1  4  1  0  0  0  0
  1 29  1  0  0  0  0
  2  3  1  0  0  0  0
  2 30  1  0  0  0  0
  3  6  1  0  0  0  0
  3  7  1  0  0  0  0
  3  9  1  0  0  0  0
  4  5  1  0  0  0  0
  4  8  1  0  0  0  0
  4 10  1  0  0  0  0
  5 11  1  0  0  0  0
  5 15  1  0  0  0  0
  5 16  1  0  0  0  0
  6 12  1  0  0  0  0
  6 13  1  0  0  0  0
  6 14  1  0  0  0  0
  7 17  1  0  0  0  0
  7 18  1  0  0  0  0
  7 19  1  0  0  0  0
  8 20  1  0  0  0  0
  8 21  1  0  0  0  0
  8 22  1  0  0  0  0
  9 10  3  0  0  0  0
 11 23  1  0  0  0  0
 11 24  1  0  0  0  0
 11 25  1  0  0  0  0
 12 26  1  0  0  0  0
 12 27  1  0  0  0  0
 12 28  1  0  0  0  0
M  END
> <PUBCHEM_COMPOUND_CID>
6546

> <PUBCHEM_COMPOUND_CANONICALIZED>
1

> <PUBCHEM_CACTVS_COMPLEXITY>
190

> <PUBCHEM_CACTVS_HBOND_ACCEPTOR>
2

> <PUBCHEM_CACTVS_HBOND_DONOR>
2

> <PUBCHEM_CACTVS_ROTATABLE_BOND>
4

> <PUBCHEM_CACTVS_SUBSKEYS>
AAADceBwMAAAAAAAAAAAAAAAAAAAAAAAAAAAAAAAAAAAAAAAAAAAGgAACAAADESAgAACAAAAAgBAEAAAAAgAAAAAAAAAAAAAAAAAAAAAAAAAQAAAAAAAAAAAAAAIAAAAAAAAAAAAAAAAAAAAAAAAAAAAAA==

> <PUBCHEM_IUPAC_OPENEYE_NAME>
3,6-dimethyloct-4-yne-3,6-diol

> <PUBCHEM_IUPAC_CAS_NAME>
3,6-dimethyl-4-octyne-3,6-diol

> <PUBCHEM_IUPAC_NAME>
3,6-dimethyloct-4-yne-3,6-diol

> <PUBCHEM_IUPAC_SYSTEMATIC_NAME>
3,6-dimethyloct-4-yne-3,6-diol

> <PUBCHEM_IUPAC_TRADITIONAL_NAME>
3,6-dimethyloct-4-yne-3,6-diol

> <PUBCHEM_IUPAC_INCHI>
InChI=1S/C10H18O2/c1-5-9(3,11)7-8-10(4,12)6-2/h11-12H,5-6H2,1-4H3

> <PUBCHEM_IUPAC_INCHIKEY>
NUYADIDKTLPDGG-UHFFFAOYSA-N

> <PUBCHEM_XLOGP3_AA>
1.2

> <PUBCHEM_EXACT_MASS>
170.13068

> <PUBCHEM_MOLECULAR_FORMULA>
C10H18O2

> <PUBCHEM_MOLECULAR_WEIGHT>
170.24872

> <PUBCHEM_OPENEYE_CAN_SMILES>
CCC(C)(C#CC(C)(CC)O)O

> <PUBCHEM_OPENEYE_ISO_SMILES>
CCC(C)(C#CC(C)(CC)O)O

> <PUBCHEM_CACTVS_TPSA>
40.5

> <PUBCHEM_MONOISOTOPIC_WEIGHT>
170.13068

> <PUBCHEM_TOTAL_CHARGE>
0

> <PUBCHEM_HEAVY_ATOM_COUNT>
12

> <PUBCHEM_ATOM_DEF_STEREO_COUNT>
0

> <PUBCHEM_ATOM_UDEF_STEREO_COUNT>
2

> <PUBCHEM_BOND_DEF_STEREO_COUNT>
0

> <PUBCHEM_BOND_UDEF_STEREO_COUNT>
0

> <PUBCHEM_ISOTOPIC_ATOM_COUNT>
0

> <PUBCHEM_COMPONENT_COUNT>
1

> <PUBCHEM_CACTVS_TAUTO_COUNT>
1

> <PUBCHEM_COORDINATE_TYPE>
1
5
255

> <PUBCHEM_BONDANNOTATIONS>
4  1  3
3  2  3

$$$$

