12370
  -OEChem-06261206523D

 22 21  0     0  0  0  0  0  0999 V2000
    0.6250    0.5758   -0.0167 C   0  0  0  0  0  0  0  0  0  0  0  0
    1.8275   -0.3697   -0.0170 C   0  0  0  0  0  0  0  0  0  0  0  0
   -0.6933   -0.2001   -0.0383 C   0  0  0  0  0  0  0  0  0  0  0  0
    3.1438    0.4051    0.0380 C   0  0  0  0  0  0  0  0  0  0  0  0
   -1.8953    0.7438   -0.0043 C   0  0  0  0  0  0  0  0  0  0  0  0
    4.3423   -0.5297    0.0043 C   0  0  0  0  0  0  0  0  0  0  0  0
   -3.1583   -0.0073    0.0111 C   0  0  0  0  0  0  0  0  0  0  0  0
   -4.1918   -0.6179    0.0230 C   0  0  0  0  0  0  0  0  0  0  0  0
    0.6766    1.2384   -0.8891 H   0  0  0  0  0  0  0  0  0  0  0  0
    0.6608    1.2125    0.8757 H   0  0  0  0  0  0  0  0  0  0  0  0
    1.7651   -1.0465    0.8437 H   0  0  0  0  0  0  0  0  0  0  0  0
    1.8032   -0.9922   -0.9198 H   0  0  0  0  0  0  0  0  0  0  0  0
   -0.7378   -0.8274   -0.9377 H   0  0  0  0  0  0  0  0  0  0  0  0
   -0.7327   -0.8801    0.8225 H   0  0  0  0  0  0  0  0  0  0  0  0
    3.1828    1.0088    0.9523 H   0  0  0  0  0  0  0  0  0  0  0  0
    3.2049    1.0967   -0.8104 H   0  0  0  0  0  0  0  0  0  0  0  0
   -1.8725    1.4057   -0.8778 H   0  0  0  0  0  0  0  0  0  0  0  0
   -1.8415    1.3827    0.8848 H   0  0  0  0  0  0  0  0  0  0  0  0
    4.3287   -1.2158    0.8572 H   0  0  0  0  0  0  0  0  0  0  0  0
    5.2727    0.0452    0.0456 H   0  0  0  0  0  0  0  0  0  0  0  0
    4.3509   -1.1239   -0.9151 H   0  0  0  0  0  0  0  0  0  0  0  0
   -5.1085   -1.1597    0.0336 H   0  0  0  0  0  0  0  0  0  0  0  0
  1  2  1  0  0  0  0
  1  3  1  0  0  0  0
  1  9  1  0  0  0  0
  1 10  1  0  0  0  0
  2  4  1  0  0  0  0
  2 11  1  0  0  0  0
  2 12  1  0  0  0  0
  3  5  1  0  0  0  0
  3 13  1  0  0  0  0
  3 14  1  0  0  0  0
  4  6  1  0  0  0  0
  4 15  1  0  0  0  0
  4 16  1  0  0  0  0
  5  7  1  0  0  0  0
  5 17  1  0  0  0  0
  5 18  1  0  0  0  0
  6 19  1  0  0  0  0
  6 20  1  0  0  0  0
  6 21  1  0  0  0  0
  7  8  3  0  0  0  0
  8 22  1  0  0  0  0
M  END
> <PUBCHEM_COMPOUND_CID>
12370

> <PUBCHEM_CONFORMER_RMSD>
0.6

> <PUBCHEM_CONFORMER_DIVERSEORDER>
1
15
18
16
20
12
4
14
9
23
13
5
22
6
3
10
7
19
21
17
11
8
2

> <PUBCHEM_MMFF94_PARTIAL_CHARGES>
4
22 0.18
5 0.2
7 -0.2
8 -0.18

> <PUBCHEM_EFFECTIVE_ROTOR_COUNT>
4

> <PUBCHEM_PHARMACOPHORE_FEATURES>
4
1 6 hydrophobe
1 8 hydrophobe
3 1 2 4 hydrophobe
3 3 5 7 hydrophobe

> <PUBCHEM_HEAVY_ATOM_COUNT>
8

> <PUBCHEM_ATOM_DEF_STEREO_COUNT>
0

> <PUBCHEM_ATOM_UDEF_STEREO_COUNT>
0

> <PUBCHEM_BOND_DEF_STEREO_COUNT>
0

> <PUBCHEM_BOND_UDEF_STEREO_COUNT>
0

> <PUBCHEM_ISOTOPIC_ATOM_COUNT>
0

> <PUBCHEM_COMPONENT_COUNT>
1

> <PUBCHEM_CACTVS_TAUTO_COUNT>
1

> <PUBCHEM_CONFORMER_ID>
0000305200000001

> <PUBCHEM_MMFF94_ENERGY>
-2.5442

> <PUBCHEM_FEATURE_SELFOVERLAP>
20.34

> <PUBCHEM_SHAPE_FINGERPRINT>
11062470 55 18411136930815212393
12932764 1 15575008315447508429
14123238 8 17821730520348722588
14325111 11 18410575110469870917
177051 138 18410574006958694462
17834076 25 12391514191330445903
18342897 14 16226043401229434211
190213 19 18409168817997210540
20211469 26 18202002135637089413
20719005 15 18410293614276825602
21119208 17 14549018784032160546
21293036 1 16487256564583339941
22485316 2 18343306971976616563
23402539 116 18335709351218953645

> <PUBCHEM_SHAPE_MULTIPOLES>
164.64
8.63
0.85
0.62
0.87
0.03
0
-1.92
0.11
-0.06
0
0
0
0.01

> <PUBCHEM_SHAPE_SELFOVERLAP>
289.591

> <PUBCHEM_SHAPE_VOLUME>
107.8

> <PUBCHEM_COORDINATE_TYPE>
2
5
10

$$$$

