17395928
  -OEChem-06241222532D

 36 38  0     0  0  0  0  0  0999 V2000
    5.3147   -1.9108    0.0000 Cl  0  0  0  0  0  0  0  0  0  0  0  0
    3.4782   -1.9054    0.0000 S   0  0  0  0  0  0  0  0  0  0  0  0
   10.5769   -0.9350    0.0000 O   0  0  0  0  0  0  0  0  0  0  0  0
   10.5769    1.1133    0.0000 O   0  0  0  0  0  0  0  0  0  0  0  0
    7.0468    2.0892    0.0000 O   0  0  0  0  0  0  0  0  0  0  0  0
    7.0468   -0.9109    0.0000 N   0  0  0  0  0  0  0  0  0  0  0  0
    6.1808    0.5891    0.0000 N   0  0  0  0  0  0  0  0  0  0  0  0
    7.9128   -0.4109    0.0000 C   0  0  0  0  0  0  0  0  0  0  0  0
    7.9128    0.5891    0.0000 C   0  0  0  0  0  0  0  0  0  0  0  0
    8.8067   -0.9455    0.0000 C   0  0  0  0  0  0  0  0  0  0  0  0
    8.8067    1.1238    0.0000 C   0  0  0  0  0  0  0  0  0  0  0  0
    9.7128   -0.4317    0.0000 C   0  0  0  0  0  0  0  0  0  0  0  0
    9.7128    0.6100    0.0000 C   0  0  0  0  0  0  0  0  0  0  0  0
    6.1808   -0.4109    0.0000 C   0  0  0  0  0  0  0  0  0  0  0  0
    7.0468    1.0892    0.0000 C   0  0  0  0  0  0  0  0  0  0  0  0
    5.3147   -0.9109    0.0000 C   0  0  0  0  0  0  0  0  0  0  0  0
    4.4487   -0.4109    0.0000 C   0  0  0  0  0  0  0  0  0  0  0  0
    3.5827   -0.9109    0.0000 C   0  0  0  0  0  0  0  0  0  0  0  0
   10.5730   -1.9350    0.0000 C   0  0  0  0  0  0  0  0  0  0  0  0
   10.5730    2.1133    0.0000 C   0  0  0  0  0  0  0  0  0  0  0  0
    2.6691   -0.5041    0.0000 C   0  0  0  0  0  0  0  0  0  0  0  0
    2.0000   -1.2473    0.0000 C   0  0  0  0  0  0  0  0  0  0  0  0
    2.5000   -2.1133    0.0000 C   0  0  0  0  0  0  0  0  0  0  0  0
    8.7996   -1.5655    0.0000 H   0  0  0  0  0  0  0  0  0  0  0  0
    8.7996    1.7438    0.0000 H   0  0  0  0  0  0  0  0  0  0  0  0
    7.0468   -1.5308    0.0000 H   0  0  0  0  0  0  0  0  0  0  0  0
    4.4487    0.2091    0.0000 H   0  0  0  0  0  0  0  0  0  0  0  0
    2.5402    0.1023    0.0000 H   0  0  0  0  0  0  0  0  0  0  0  0
    9.9530   -1.9326    0.0000 H   0  0  0  0  0  0  0  0  0  0  0  0
   10.5707   -2.5550    0.0000 H   0  0  0  0  0  0  0  0  0  0  0  0
   11.1930   -1.9374    0.0000 H   0  0  0  0  0  0  0  0  0  0  0  0
   11.1930    2.1157    0.0000 H   0  0  0  0  0  0  0  0  0  0  0  0
   10.5707    2.7333    0.0000 H   0  0  0  0  0  0  0  0  0  0  0  0
    9.9530    2.1109    0.0000 H   0  0  0  0  0  0  0  0  0  0  0  0
    1.3834   -1.1824    0.0000 H   0  0  0  0  0  0  0  0  0  0  0  0
    2.2478   -2.6797    0.0000 H   0  0  0  0  0  0  0  0  0  0  0  0
  1 16  1  0  0  0  0
  2 18  1  0  0  0  0
  2 23  1  0  0  0  0
  3 12  1  0  0  0  0
  3 19  1  0  0  0  0
  4 13  1  0  0  0  0
  4 20  1  0  0  0  0
  5 15  2  0  0  0  0
  6  8  1  0  0  0  0
  6 14  1  0  0  0  0
  6 26  1  0  0  0  0
  7 14  2  0  0  0  0
  7 15  1  0  0  0  0
  8  9  1  0  0  0  0
  8 10  2  0  0  0  0
  9 11  2  0  0  0  0
  9 15  1  0  0  0  0
 10 12  1  0  0  0  0
 10 24  1  0  0  0  0
 11 13  1  0  0  0  0
 11 25  1  0  0  0  0
 12 13  2  0  0  0  0
 14 16  1  0  0  0  0
 16 17  2  0  0  0  0
 17 18  1  0  0  0  0
 17 27  1  0  0  0  0
 18 21  2  0  0  0  0
 19 29  1  0  0  0  0
 19 30  1  0  0  0  0
 19 31  1  0  0  0  0
 20 32  1  0  0  0  0
 20 33  1  0  0  0  0
 20 34  1  0  0  0  0
 21 22  1  0  0  0  0
 21 28  1  0  0  0  0
 22 23  2  0  0  0  0
 22 35  1  0  0  0  0
 23 36  1  0  0  0  0
M  END
> <PUBCHEM_COMPOUND_CID>
17395928

> <PUBCHEM_COMPOUND_CANONICALIZED>
1

> <PUBCHEM_CACTVS_COMPLEXITY>
526

> <PUBCHEM_CACTVS_HBOND_ACCEPTOR>
4

> <PUBCHEM_CACTVS_HBOND_DONOR>
1

> <PUBCHEM_CACTVS_ROTATABLE_BOND>
4

> <PUBCHEM_CACTVS_SUBSKEYS>
AAADccB7MABEAAAAAAAAAAAAAAAAASAAAAAwQAAAAAAAAACBwAAAHgYQAAAADA6F2AKzx4LABAisAidydACDCIElKhBJiBkG7NgNJjrk/ZvEMapm0Bnq6ce63BPOIEABAgACQABAgAIEAASAAAAAAAAAAA==

> <PUBCHEM_IUPAC_OPENEYE_NAME>
2-[(Z)-1-chloro-2-(2-thienyl)vinyl]-6,7-dimethoxy-1H-quinazolin-4-one

> <PUBCHEM_IUPAC_CAS_NAME>
2-[(Z)-1-chloro-2-thiophen-2-ylethenyl]-6,7-dimethoxy-1H-quinazolin-4-one

> <PUBCHEM_IUPAC_NAME>
2-[(Z)-1-chloro-2-thiophen-2-ylethenyl]-6,7-dimethoxy-1H-quinazolin-4-one

> <PUBCHEM_IUPAC_SYSTEMATIC_NAME>
2-[(Z)-1-chloranyl-2-thiophen-2-yl-ethenyl]-6,7-dimethoxy-1H-quinazolin-4-one

> <PUBCHEM_IUPAC_TRADITIONAL_NAME>
2-[(Z)-1-chloro-2-(2-thienyl)vinyl]-6,7-dimethoxy-1H-quinazolin-4-one

> <PUBCHEM_IUPAC_INCHI>
InChI=1S/C16H13ClN2O3S/c1-21-13-7-10-12(8-14(13)22-2)18-15(19-16(10)20)11(17)6-9-4-3-5-23-9/h3-8H,1-2H3,(H,18,19,20)/b11-6-

> <PUBCHEM_IUPAC_INCHIKEY>
HAMMYKXEVMUSCI-WDZFZDKYSA-N

> <PUBCHEM_XLOGP3_AA>
3.3

> <PUBCHEM_EXACT_MASS>
348.033541

> <PUBCHEM_MOLECULAR_FORMULA>
C16H13ClN2O3S

> <PUBCHEM_MOLECULAR_WEIGHT>
348.80402

> <PUBCHEM_OPENEYE_CAN_SMILES>
COC1=C(C=C2C(=C1)C(=O)N=C(N2)C(=CC3=CC=CS3)Cl)OC

> <PUBCHEM_OPENEYE_ISO_SMILES>
COC1=C(C=C2C(=C1)C(=O)N=C(N2)/C(=C/C3=CC=CS3)/Cl)OC

> <PUBCHEM_CACTVS_TPSA>
88.2

> <PUBCHEM_MONOISOTOPIC_WEIGHT>
348.033541

> <PUBCHEM_TOTAL_CHARGE>
0

> <PUBCHEM_HEAVY_ATOM_COUNT>
23

> <PUBCHEM_ATOM_DEF_STEREO_COUNT>
0

> <PUBCHEM_ATOM_UDEF_STEREO_COUNT>
0

> <PUBCHEM_BOND_DEF_STEREO_COUNT>
1

> <PUBCHEM_BOND_UDEF_STEREO_COUNT>
0

> <PUBCHEM_ISOTOPIC_ATOM_COUNT>
0

> <PUBCHEM_COMPONENT_COUNT>
1

> <PUBCHEM_CACTVS_TAUTO_COUNT>
3

> <PUBCHEM_COORDINATE_TYPE>
1
5
255

> <PUBCHEM_BONDANNOTATIONS>
10  12  8
11  13  8
12  13  8
18  21  8
2  18  8
2  23  8
21  22  8
22  23  8
6  14  8
6  8  8
7  14  8
7  15  8
8  10  8
8  9  8
9  11  8
9  15  8

$$$$

