51090854
  -OEChem-06241223002D

 35 37  0     0  0  0  0  0  0999 V2000
    2.3090   -4.2888    0.0000 O   0  0  0  0  0  0  0  0  0  0  0  0
    2.8090    0.2500    0.0000 O   0  0  0  0  0  0  0  0  0  0  0  0
    3.6750   -1.2500    0.0000 N   0  0  0  0  0  0  0  0  0  0  0  0
    5.4071    2.7500    0.0000 N   0  0  0  0  0  0  0  0  0  0  0  0
    6.2731    1.2500    0.0000 N   0  0  0  0  0  0  0  0  0  0  0  0
    4.9071    4.2888    0.0000 N   0  0  0  0  0  0  0  0  0  0  0  0
    2.8090   -1.7500    0.0000 C   0  0  0  0  0  0  0  0  0  0  0  0
    2.8090   -2.7500    0.0000 C   0  0  0  0  0  0  0  0  0  0  0  0
    3.6750   -0.2500    0.0000 C   0  0  0  0  0  0  0  0  0  0  0  0
    4.5411    0.2500    0.0000 C   0  0  0  0  0  0  0  0  0  0  0  0
    4.5411   -1.7500    0.0000 C   0  0  0  0  0  0  0  0  0  0  0  0
    4.5411    1.2500    0.0000 C   0  0  0  0  0  0  0  0  0  0  0  0
    5.4071    1.7500    0.0000 C   0  0  0  0  0  0  0  0  0  0  0  0
    3.6180   -3.3378    0.0000 C   0  0  0  0  0  0  0  0  0  0  0  0
    5.4071   -0.2500    0.0000 C   0  0  0  0  0  0  0  0  0  0  0  0
    2.0000   -3.3378    0.0000 C   0  0  0  0  0  0  0  0  0  0  0  0
    6.2731    0.2500    0.0000 C   0  0  0  0  0  0  0  0  0  0  0  0
    3.3090   -4.2888    0.0000 C   0  0  0  0  0  0  0  0  0  0  0  0
    6.2161    3.3378    0.0000 C   0  0  0  0  0  0  0  0  0  0  0  0
    4.5981    3.3378    0.0000 C   0  0  0  0  0  0  0  0  0  0  0  0
    5.9071    4.2888    0.0000 C   0  0  0  0  0  0  0  0  0  0  0  0
    2.5970   -1.1674    0.0000 H   0  0  0  0  0  0  0  0  0  0  0  0
    2.1984   -1.8577    0.0000 H   0  0  0  0  0  0  0  0  0  0  0  0
    4.2311   -2.2869    0.0000 H   0  0  0  0  0  0  0  0  0  0  0  0
    5.0780   -2.0600    0.0000 H   0  0  0  0  0  0  0  0  0  0  0  0
    4.8511   -1.2131    0.0000 H   0  0  0  0  0  0  0  0  0  0  0  0
    4.0041    1.5600    0.0000 H   0  0  0  0  0  0  0  0  0  0  0  0
    5.4071   -0.8700    0.0000 H   0  0  0  0  0  0  0  0  0  0  0  0
    4.2077   -3.1462    0.0000 H   0  0  0  0  0  0  0  0  0  0  0  0
    1.4103   -3.1462    0.0000 H   0  0  0  0  0  0  0  0  0  0  0  0
    6.8100   -0.0600    0.0000 H   0  0  0  0  0  0  0  0  0  0  0  0
    3.6734   -4.7904    0.0000 H   0  0  0  0  0  0  0  0  0  0  0  0
    6.8058    3.1462    0.0000 H   0  0  0  0  0  0  0  0  0  0  0  0
    4.0084    3.1462    0.0000 H   0  0  0  0  0  0  0  0  0  0  0  0
    6.2715    4.7904    0.0000 H   0  0  0  0  0  0  0  0  0  0  0  0
  1 16  1  0  0  0  0
  1 18  1  0  0  0  0
  2  9  2  0  0  0  0
  3  7  1  0  0  0  0
  3  9  1  0  0  0  0
  3 11  1  0  0  0  0
  4 13  1  0  0  0  0
  4 19  1  0  0  0  0
  4 20  1  0  0  0  0
  5 13  2  0  0  0  0
  5 17  1  0  0  0  0
  6 20  2  0  0  0  0
  6 21  1  0  0  0  0
  7  8  1  0  0  0  0
  7 22  1  0  0  0  0
  7 23  1  0  0  0  0
  8 14  1  0  0  0  0
  8 16  2  0  0  0  0
  9 10  1  0  0  0  0
 10 12  2  0  0  0  0
 10 15  1  0  0  0  0
 11 24  1  0  0  0  0
 11 25  1  0  0  0  0
 11 26  1  0  0  0  0
 12 13  1  0  0  0  0
 12 27  1  0  0  0  0
 14 18  2  0  0  0  0
 14 29  1  0  0  0  0
 15 17  2  0  0  0  0
 15 28  1  0  0  0  0
 16 30  1  0  0  0  0
 17 31  1  0  0  0  0
 18 32  1  0  0  0  0
 19 21  2  0  0  0  0
 19 33  1  0  0  0  0
 20 34  1  0  0  0  0
 21 35  1  0  0  0  0
M  END
> <PUBCHEM_COMPOUND_CID>
51090854

> <PUBCHEM_COMPOUND_CANONICALIZED>
1

> <PUBCHEM_CACTVS_COMPLEXITY>
366

> <PUBCHEM_CACTVS_HBOND_ACCEPTOR>
4

> <PUBCHEM_CACTVS_HBOND_DONOR>
0

> <PUBCHEM_CACTVS_ROTATABLE_BOND>
4

> <PUBCHEM_CACTVS_SUBSKEYS>
AAADccBzsAAAAAAAAAAAAAAAAAAAAWJAAAAsAAAAAAAAAAAB+AAAHgAAAAAADADhmgY/tJcMFECoAjt39ACCiC01MqAJ2CE+fNiMbnrEvZuWOSjuxhPI6aY0AAAKAAAAAAAAAAAAAAAAAAAAAAAAAAAAAA==

> <PUBCHEM_IUPAC_OPENEYE_NAME>
N-(3-furylmethyl)-2-imidazol-1-yl-N-methyl-pyridine-4-carboxamide

> <PUBCHEM_IUPAC_CAS_NAME>
N-(3-furanylmethyl)-2-(1-imidazolyl)-N-methyl-4-pyridinecarboxamide

> <PUBCHEM_IUPAC_NAME>
N-(furan-3-ylmethyl)-2-imidazol-1-yl-N-methylpyridine-4-carboxamide

> <PUBCHEM_IUPAC_SYSTEMATIC_NAME>
N-(furan-3-ylmethyl)-2-imidazol-1-yl-N-methyl-pyridine-4-carboxamide

> <PUBCHEM_IUPAC_TRADITIONAL_NAME>
N-(3-furfuryl)-2-imidazol-1-yl-N-methyl-isonicotinamide

> <PUBCHEM_IUPAC_INCHI>
InChI=1S/C15H14N4O2/c1-18(9-12-3-7-21-10-12)15(20)13-2-4-17-14(8-13)19-6-5-16-11-19/h2-8,10-11H,9H2,1H3

> <PUBCHEM_IUPAC_INCHIKEY>
KOIFZLMAKRIGIP-UHFFFAOYSA-N

> <PUBCHEM_XLOGP3_AA>
1

> <PUBCHEM_EXACT_MASS>
282.111676

> <PUBCHEM_MOLECULAR_FORMULA>
C15H14N4O2

> <PUBCHEM_MOLECULAR_WEIGHT>
282.29726

> <PUBCHEM_OPENEYE_CAN_SMILES>
CN(CC1=COC=C1)C(=O)C2=CC(=NC=C2)N3C=CN=C3

> <PUBCHEM_OPENEYE_ISO_SMILES>
CN(CC1=COC=C1)C(=O)C2=CC(=NC=C2)N3C=CN=C3

> <PUBCHEM_CACTVS_TPSA>
64.2

> <PUBCHEM_MONOISOTOPIC_WEIGHT>
282.111676

> <PUBCHEM_TOTAL_CHARGE>
0

> <PUBCHEM_HEAVY_ATOM_COUNT>
21

> <PUBCHEM_ATOM_DEF_STEREO_COUNT>
0

> <PUBCHEM_ATOM_UDEF_STEREO_COUNT>
0

> <PUBCHEM_BOND_DEF_STEREO_COUNT>
0

> <PUBCHEM_BOND_UDEF_STEREO_COUNT>
0

> <PUBCHEM_ISOTOPIC_ATOM_COUNT>
0

> <PUBCHEM_COMPONENT_COUNT>
1

> <PUBCHEM_CACTVS_TAUTO_COUNT>
1

> <PUBCHEM_COORDINATE_TYPE>
1
5
255

> <PUBCHEM_BONDANNOTATIONS>
1  16  8
1  18  8
10  12  8
10  15  8
12  13  8
14  18  8
15  17  8
19  21  8
4  19  8
4  20  8
5  13  8
5  17  8
6  20  8
6  21  8
8  14  8
8  16  8

$$$$

