3863
  -OEChem-06251223443D

 30 29  0     1  0  0  0  0  0999 V2000
    3.7041   -0.9754   -1.0793 O   0  0  0  0  0  0  0  0  0  0  0  0
    3.2163    1.2220   -1.3902 O   0  0  0  0  0  0  0  0  0  0  0  0
    2.4674    1.5293    1.2152 N   0  0  0  0  0  0  0  0  0  0  0  0
   -2.5174    0.1230    0.3537 N   0  0  0  0  0  0  0  0  0  0  0  0
   -4.3537    1.6565    0.0966 N   0  0  0  0  0  0  0  0  0  0  0  0
    0.3925   -0.4844    0.2942 C   0  0  0  0  0  0  0  0  0  0  0  0
    1.6978   -0.8194    1.0301 C   0  0  0  0  0  0  0  0  0  0  0  0
   -0.7064   -1.4973    0.6342 C   0  0  0  0  0  0  0  0  0  0  0  0
    2.8390    0.1804    0.7915 C   0  0  1  0  0  0  0  0  0  0  0  0
   -2.0229   -1.1879   -0.0698 C   0  0  0  0  0  0  0  0  0  0  0  0
    3.2538    0.2381   -0.6651 C   0  0  0  0  0  0  0  0  0  0  0  0
   -3.6523    0.4958   -0.1324 C   0  0  0  0  0  0  0  0  0  0  0  0
   -4.3183   -0.4806   -1.0787 C   0  0  0  0  0  0  0  0  0  0  0  0
    0.0620    0.5227    0.5710 H   0  0  0  0  0  0  0  0  0  0  0  0
    0.5632   -0.4842   -0.7887 H   0  0  0  0  0  0  0  0  0  0  0  0
    2.0237   -1.8241    0.7319 H   0  0  0  0  0  0  0  0  0  0  0  0
    1.4955   -0.8709    2.1082 H   0  0  0  0  0  0  0  0  0  0  0  0
   -0.3766   -2.5039    0.3499 H   0  0  0  0  0  0  0  0  0  0  0  0
   -0.8687   -1.5053    1.7193 H   0  0  0  0  0  0  0  0  0  0  0  0
    3.7177   -0.1259    1.3716 H   0  0  0  0  0  0  0  0  0  0  0  0
   -1.8326   -1.2179   -1.1488 H   0  0  0  0  0  0  0  0  0  0  0  0
   -2.7162   -1.9895    0.2083 H   0  0  0  0  0  0  0  0  0  0  0  0
    3.2785    2.1438    1.1533 H   0  0  0  0  0  0  0  0  0  0  0  0
    2.1951    1.5162    2.1973 H   0  0  0  0  0  0  0  0  0  0  0  0
    3.9840   -0.9597   -2.0193 H   0  0  0  0  0  0  0  0  0  0  0  0
   -3.7038   -0.6716   -1.9621 H   0  0  0  0  0  0  0  0  0  0  0  0
   -4.5838   -1.4117   -0.5713 H   0  0  0  0  0  0  0  0  0  0  0  0
   -5.2587   -0.0556   -1.4488 H   0  0  0  0  0  0  0  0  0  0  0  0
   -5.2497    1.8445   -0.3401 H   0  0  0  0  0  0  0  0  0  0  0  0
   -3.9886    2.3681    0.7206 H   0  0  0  0  0  0  0  0  0  0  0  0
  1 11  1  0  0  0  0
  1 25  1  0  0  0  0
  2 11  2  0  0  0  0
  3  9  1  0  0  0  0
  3 23  1  0  0  0  0
  3 24  1  0  0  0  0
  4 10  1  0  0  0  0
  4 12  2  0  0  0  0
  5 12  1  0  0  0  0
  5 29  1  0  0  0  0
  5 30  1  0  0  0  0
  6  7  1  0  0  0  0
  6  8  1  0  0  0  0
  6 14  1  0  0  0  0
  6 15  1  0  0  0  0
  7  9  1  0  0  0  0
  7 16  1  0  0  0  0
  7 17  1  0  0  0  0
  8 10  1  0  0  0  0
  8 18  1  0  0  0  0
  8 19  1  0  0  0  0
  9 11  1  0  0  0  0
  9 20  1  0  0  0  0
 10 21  1  0  0  0  0
 10 22  1  0  0  0  0
 12 13  1  0  0  0  0
 13 26  1  0  0  0  0
 13 27  1  0  0  0  0
 13 28  1  0  0  0  0
M  END
> <PUBCHEM_COMPOUND_CID>
3863

> <PUBCHEM_CONFORMER_RMSD>
0.6

> <PUBCHEM_CONFORMER_DIVERSEORDER>
6
103
21
192
135
47
39
188
96
18
107
174
93
186
213
122
211
7
127
74
169
109
20
124
173
62
99
144
204
121
16
86
101
43
118
129
49
131
184
88
111
214
55
123
185
37
114
85
46
94
202
24
130
89
98
215
105
198
168
141
201
14
50
15
27
61
196
147
178
92
212
48
102
149
58
13
139
63
38
152
53
104
146
3
23
155
142
90
159
165
51
187
79
209
126
34
208
97
71
4
117
9
162
206
87
64
68
41
100
128
25
80
115
78
194
116
145
108
73
32
112
72
195
45
199
17
119
200
40
106
33
91
30
70
77
36
160
35
170
95
75
83
177
12
175
44
166
183
125
113
197
150
176
163
110
84
151
10
56
31
52
22
76
158
157
1
203
54
207
59
179
5
137
143
42
2
190
66
57
133
8
210
65
181
138
26
193
67
82
81
19
148
189
28
154
120
60
69
11
132
167
164
29
172
140
156
191
171
136
153
182
205
180
161
134

> <PUBCHEM_MMFF94_PARTIAL_CHARGES>
15
1 -0.65
10 0.25
11 0.66
12 0.44
13 0.06
2 -0.57
23 0.36
24 0.36
25 0.5
29 0.4
3 -0.99
30 0.4
4 -0.7
5 -0.85
9 0.33

> <PUBCHEM_EFFECTIVE_ROTOR_COUNT>
6

> <PUBCHEM_PHARMACOPHORE_FEATURES>
7
1 1 acceptor
1 2 acceptor
1 3 cation
1 3 donor
1 5 donor
3 1 2 11 anion
3 4 5 12 cation

> <PUBCHEM_HEAVY_ATOM_COUNT>
13

> <PUBCHEM_ATOM_DEF_STEREO_COUNT>
0

> <PUBCHEM_ATOM_UDEF_STEREO_COUNT>
1

> <PUBCHEM_BOND_DEF_STEREO_COUNT>
0

> <PUBCHEM_BOND_UDEF_STEREO_COUNT>
0

> <PUBCHEM_ISOTOPIC_ATOM_COUNT>
0

> <PUBCHEM_COMPONENT_COUNT>
1

> <PUBCHEM_CACTVS_TAUTO_COUNT>
2

> <PUBCHEM_CONFORMER_ID>
00000F1700000006

> <PUBCHEM_MMFF94_ENERGY>
22.1777

> <PUBCHEM_FEATURE_SELFOVERLAP>
35.578

> <PUBCHEM_SHAPE_FINGERPRINT>
11543360 7 17459200603053219767
11987891 27 5833990546547909435
13705890 14 16008753480752375602
14123260 362 18343580742209090681
1420 369 6627757681732776541
14252887 29 9583519845313779926
14289901 80 13758354462208255541
15239191 94 6699808700412838935
17041 50 18114176419749619096
177051 138 7132442310864352030
18186145 218 18341337755373021139
19107657 162 10159703503480878121
19107657 9 18273215309240273785
1986462 14 17603868905839465207
20233049 118 18411422821477466944
20279233 1 17749390326142661202
20281407 28 9799414455407557755
20645477 70 16153420628255670310
20671657 53 15864066585237419778
20742870 56 17676483973605295030
212847 35 18342742961097701593
21501925 9 7709453909687416850
22485316 2 7781513711707650539
22646028 28 5906059140018194580
22959321 60 14549020974607893479
23380061 81 17418096550391406794
23402655 69 17968095347553391241
4990 188 18040154032634396599
5281201 14 17530966860790469145
93112 12 17821728303892617630
9882013 296 13326564138409862211

> <PUBCHEM_SHAPE_MULTIPOLES>
240.85
9.06
1.49
1.19
4.95
0.19
0.15
2.97
2.49
0.26
-0.15
-0.93
0.13
-0.25

> <PUBCHEM_SHAPE_SELFOVERLAP>
453.513

> <PUBCHEM_SHAPE_VOLUME>
148.4

> <PUBCHEM_COORDINATE_TYPE>
2
5
10

$$$$

