12541
  -OEChem-06261207043D

 27 26  0     0  0  0  0  0  0999 V2000
    0.6316    0.1360   -1.2319 S   0  0  0  0  0  0  0  0  0  0  0  0
   -3.3397   -0.0893    0.6159 S   0  0  0  0  0  0  0  0  0  0  0  0
    4.1394   -0.1277   -1.1802 S   0  0  0  0  0  0  0  0  0  0  0  0
    2.4653   -0.0137   -0.1633 P   0  0  0  0  0  0  0  0  0  0  0  0
    2.4825    1.2077    0.9240 O   0  0  0  0  0  0  0  0  0  0  0  0
    2.3028   -1.2527    0.8914 O   0  0  0  0  0  0  0  0  0  0  0  0
   -0.6636   -0.0265    0.0135 C   0  0  0  0  0  0  0  0  0  0  0  0
   -2.0350    0.0660   -0.6404 C   0  0  0  0  0  0  0  0  0  0  0  0
   -4.7708    0.1122   -0.4690 C   0  0  0  0  0  0  0  0  0  0  0  0
   -6.0591    0.0259    0.3270 C   0  0  0  0  0  0  0  0  0  0  0  0
    2.6110    2.5516    0.4905 C   0  0  0  0  0  0  0  0  0  0  0  0
    2.2356   -2.5894    0.4226 C   0  0  0  0  0  0  0  0  0  0  0  0
   -0.5270    0.7686    0.7541 H   0  0  0  0  0  0  0  0  0  0  0  0
   -0.5374   -0.9896    0.5189 H   0  0  0  0  0  0  0  0  0  0  0  0
   -2.1669   -0.7351   -1.3760 H   0  0  0  0  0  0  0  0  0  0  0  0
   -2.1552    1.0308   -1.1455 H   0  0  0  0  0  0  0  0  0  0  0  0
   -4.7135    1.0846   -0.9681 H   0  0  0  0  0  0  0  0  0  0  0  0
   -4.7593   -0.6712   -1.2334 H   0  0  0  0  0  0  0  0  0  0  0  0
   -6.1621   -0.9458    0.8220 H   0  0  0  0  0  0  0  0  0  0  0  0
   -6.1159    0.8122    1.0874 H   0  0  0  0  0  0  0  0  0  0  0  0
   -6.9185    0.1493   -0.3406 H   0  0  0  0  0  0  0  0  0  0  0  0
    2.2604    3.2093    1.2898 H   0  0  0  0  0  0  0  0  0  0  0  0
    2.0120    2.7344   -0.4047 H   0  0  0  0  0  0  0  0  0  0  0  0
    3.6612    2.7741    0.2864 H   0  0  0  0  0  0  0  0  0  0  0  0
    1.6515   -2.6551   -0.4983 H   0  0  0  0  0  0  0  0  0  0  0  0
    1.7556   -3.2026    1.1894 H   0  0  0  0  0  0  0  0  0  0  0  0
    3.2456   -2.9687    0.2490 H   0  0  0  0  0  0  0  0  0  0  0  0
  1  4  1  0  0  0  0
  1  7  1  0  0  0  0
  2  8  1  0  0  0  0
  2  9  1  0  0  0  0
  3  4  2  0  0  0  0
  4  5  1  0  0  0  0
  4  6  1  0  0  0  0
  5 11  1  0  0  0  0
  6 12  1  0  0  0  0
  7  8  1  0  0  0  0
  7 13  1  0  0  0  0
  7 14  1  0  0  0  0
  8 15  1  0  0  0  0
  8 16  1  0  0  0  0
  9 10  1  0  0  0  0
  9 17  1  0  0  0  0
  9 18  1  0  0  0  0
 10 19  1  0  0  0  0
 10 20  1  0  0  0  0
 10 21  1  0  0  0  0
 11 22  1  0  0  0  0
 11 23  1  0  0  0  0
 11 24  1  0  0  0  0
 12 25  1  0  0  0  0
 12 26  1  0  0  0  0
 12 27  1  0  0  0  0
M  END
> <PUBCHEM_COMPOUND_CID>
12541

> <PUBCHEM_CONFORMER_RMSD>
0.8

> <PUBCHEM_CONFORMER_DIVERSEORDER>
1
67
52
87
104
18
76
21
14
2
101
36
39
69
4
3
20
109
53
24
97
103
9
57
89
91
83
108
107
8
51
44
35
34
48
70
31
86
10
99
11
33
40
17
82
41
106
37
7
73
66
5
92
81
80
28
12
88
95
32
60
98
94
110
93
90
46
68
78
23
43
75
71
22
42
19
105
47
85
29
38
72
16
84
100
54
79
102
62
45
30
25
63
15
61
27
59
74
77
58
55
96
13
65
6
56
64
50
26
49

> <PUBCHEM_MMFF94_PARTIAL_CHARGES>
11
1 -0.48
11 0.28
12 0.28
2 -0.46
3 -0.68
4 1.47
5 -0.55
6 -0.55
7 0.23
8 0.23
9 0.23

> <PUBCHEM_EFFECTIVE_ROTOR_COUNT>
7

> <PUBCHEM_PHARMACOPHORE_FEATURES>
2
1 10 hydrophobe
4 2 7 8 9 hydrophobe

> <PUBCHEM_HEAVY_ATOM_COUNT>
12

> <PUBCHEM_ATOM_DEF_STEREO_COUNT>
0

> <PUBCHEM_ATOM_UDEF_STEREO_COUNT>
0

> <PUBCHEM_BOND_DEF_STEREO_COUNT>
0

> <PUBCHEM_BOND_UDEF_STEREO_COUNT>
0

> <PUBCHEM_ISOTOPIC_ATOM_COUNT>
0

> <PUBCHEM_COMPONENT_COUNT>
1

> <PUBCHEM_CACTVS_TAUTO_COUNT>
1

> <PUBCHEM_CONFORMER_ID>
000030FD00000001

> <PUBCHEM_MMFF94_ENERGY>
9.337

> <PUBCHEM_FEATURE_SELFOVERLAP>
10.149

> <PUBCHEM_SHAPE_FINGERPRINT>
10366900 7 18271798029998774785
12616999 72 17632570565612815502
12932764 1 18410583889377684764
13533116 47 18341612668209695411
13675066 3 17989489624175611533
14123238 8 16415758613975356871
14252887 29 16988837302280707429
17834072 33 18409169888098415839
17834076 25 17917707998491606239
18186145 218 18333740104323798837
20279233 1 16056870351772916867
20645477 70 18259702294002070103
22485316 2 18413390926143325423
23048698 100 18113897143864677273
23532345 1 18411419471292199777
23557571 272 13973972025215325598
23558518 356 17688603662734420854
3060560 45 18186798089244121702
31174 14 18340214067231904892
522135 26 18411138056244427951
9999458 23 18411134702191507404

> <PUBCHEM_SHAPE_MULTIPOLES>
250.61
10.93
1.9
1.14
17.54
0.07
-0.17
-0.39
-0.24
-3.09
0.79
-0.64
-0.03
0.18

> <PUBCHEM_SHAPE_SELFOVERLAP>
399.75

> <PUBCHEM_SHAPE_VOLUME>
179

> <PUBCHEM_COORDINATE_TYPE>
2
5
10

$$$$

