586299
  -OEChem-06241222463D

 21 21  0     0  0  0  0  0  0999 V2000
    0.0025    2.3828    0.2225 O   0  0  0  0  0  0  0  0  0  0  0  0
    0.4524    0.0811    0.2237 N   0  0  0  0  0  0  0  0  0  0  0  0
    1.8781    0.2803    0.4769 C   0  0  0  0  0  0  0  0  0  0  0  0
   -0.0538   -1.2190    0.0941 C   0  0  0  0  0  0  0  0  0  0  0  0
   -0.3726    1.2151    0.1181 C   0  0  0  0  0  0  0  0  0  0  0  0
   -1.3636   -1.4102   -0.1389 C   0  0  0  0  0  0  0  0  0  0  0  0
    2.6596    0.4007   -0.8151 C   0  0  0  0  0  0  0  0  0  0  0  0
    0.8756   -2.3940    0.2178 C   0  0  0  0  0  0  0  0  0  0  0  0
   -1.8177    0.9587   -0.1407 C   0  0  0  0  0  0  0  0  0  0  0  0
   -2.2606   -0.2955   -0.2582 C   0  0  0  0  0  0  0  0  0  0  0  0
    2.0048    1.2109    1.0437 H   0  0  0  0  0  0  0  0  0  0  0  0
    2.2844   -0.5092    1.1153 H   0  0  0  0  0  0  0  0  0  0  0  0
   -1.7870   -2.4036   -0.2437 H   0  0  0  0  0  0  0  0  0  0  0  0
    2.5686   -0.4936   -1.4375 H   0  0  0  0  0  0  0  0  0  0  0  0
    2.3055    1.2500   -1.4095 H   0  0  0  0  0  0  0  0  0  0  0  0
    3.7216    0.5588   -0.6022 H   0  0  0  0  0  0  0  0  0  0  0  0
    1.2956   -2.4575    1.2267 H   0  0  0  0  0  0  0  0  0  0  0  0
    1.6882   -2.3471   -0.5117 H   0  0  0  0  0  0  0  0  0  0  0  0
    0.3518   -3.3402    0.0379 H   0  0  0  0  0  0  0  0  0  0  0  0
   -2.4833    1.8092   -0.2284 H   0  0  0  0  0  0  0  0  0  0  0  0
   -3.3087   -0.4992   -0.4465 H   0  0  0  0  0  0  0  0  0  0  0  0
  1  5  2  0  0  0  0
  2  3  1  0  0  0  0
  2  4  1  0  0  0  0
  2  5  1  0  0  0  0
  3  7  1  0  0  0  0
  3 11  1  0  0  0  0
  3 12  1  0  0  0  0
  4  6  2  0  0  0  0
  4  8  1  0  0  0  0
  5  9  1  0  0  0  0
  6 10  1  0  0  0  0
  6 13  1  0  0  0  0
  7 14  1  0  0  0  0
  7 15  1  0  0  0  0
  7 16  1  0  0  0  0
  8 17  1  0  0  0  0
  8 18  1  0  0  0  0
  8 19  1  0  0  0  0
  9 10  2  0  0  0  0
  9 20  1  0  0  0  0
 10 21  1  0  0  0  0
M  END
> <PUBCHEM_COMPOUND_CID>
586299

> <PUBCHEM_CONFORMER_RMSD>
0.4

> <PUBCHEM_CONFORMER_DIVERSEORDER>
2
3
1

> <PUBCHEM_MMFF94_PARTIAL_CHARGES>
12
1 -0.57
10 -0.15
13 0.15
2 -0.47
20 0.15
21 0.15
3 0.3
4 -0.03
5 0.62
6 -0.15
8 0.14
9 -0.14

> <PUBCHEM_EFFECTIVE_ROTOR_COUNT>
1

> <PUBCHEM_PHARMACOPHORE_FEATURES>
2
1 1 acceptor
6 2 4 5 6 9 10 rings

> <PUBCHEM_HEAVY_ATOM_COUNT>
10

> <PUBCHEM_ATOM_DEF_STEREO_COUNT>
0

> <PUBCHEM_ATOM_UDEF_STEREO_COUNT>
0

> <PUBCHEM_BOND_DEF_STEREO_COUNT>
0

> <PUBCHEM_BOND_UDEF_STEREO_COUNT>
0

> <PUBCHEM_ISOTOPIC_ATOM_COUNT>
0

> <PUBCHEM_COMPONENT_COUNT>
1

> <PUBCHEM_CACTVS_TAUTO_COUNT>
1

> <PUBCHEM_CONFORMER_ID>
0008F23B00000002

> <PUBCHEM_MMFF94_ENERGY>
19.5375

> <PUBCHEM_FEATURE_SELFOVERLAP>
10.148

> <PUBCHEM_SHAPE_FINGERPRINT>
12423570 1 11995713576074878078
12524768 44 17401206668608831211
12897270 3 18410574011079582132
16945 1 18410581652010952907
18185500 45 18410020948177831755
193761 8 17977668945725624753
21040471 1 18410581720408669827
23552423 10 18198623439357840647
23559900 14 18333729122978737132
241688 4 17043458003343528434
2748010 2 17835811794056784751
5084963 1 17897724258518833875
66348 1 18338522945249512699

> <PUBCHEM_SHAPE_MULTIPOLES>
194.94
2.91
2.28
0.72
0.71
0.33
0.05
-0.28
0.59
0.06
-0.21
0.21
-0.02
-0.14

> <PUBCHEM_SHAPE_SELFOVERLAP>
393.601

> <PUBCHEM_SHAPE_VOLUME>
114.6

> <PUBCHEM_COORDINATE_TYPE>
2
5
10

$$$$

