14378
  -OEChem-06241222433D

 36 37  0     0  0  0  0  0  0999 V2000
    2.1112    4.4808   -0.2954 Br  0  0  0  0  0  0  0  0  0  0  0  0
    0.0114    0.8868    0.0276 N   0  0  0  0  0  0  0  0  0  0  0  0
   -1.2903    1.3893    0.4652 C   0  0  0  0  0  0  0  0  0  0  0  0
    0.3495   -0.3449    0.7398 C   0  0  0  0  0  0  0  0  0  0  0  0
    1.0465    1.8986    0.2366 C   0  0  0  0  0  0  0  0  0  0  0  0
   -2.3909    0.3945    0.2086 C   0  0  0  0  0  0  0  0  0  0  0  0
    1.6861   -0.8909    0.3128 C   0  0  0  0  0  0  0  0  0  0  0  0
    0.6983    3.1606   -0.5304 C   0  0  0  0  0  0  0  0  0  0  0  0
   -3.0712    0.4250   -1.0008 C   0  0  0  0  0  0  0  0  0  0  0  0
    1.7519   -1.7865   -0.7455 C   0  0  0  0  0  0  0  0  0  0  0  0
   -2.7094   -0.5394    1.1848 C   0  0  0  0  0  0  0  0  0  0  0  0
    2.8337   -0.4907    0.9831 C   0  0  0  0  0  0  0  0  0  0  0  0
   -4.0907   -0.4967   -1.2387 C   0  0  0  0  0  0  0  0  0  0  0  0
    2.9901   -2.2922   -1.1414 C   0  0  0  0  0  0  0  0  0  0  0  0
   -3.7288   -1.4611    0.9466 C   0  0  0  0  0  0  0  0  0  0  0  0
    4.0719   -0.9964    0.5871 C   0  0  0  0  0  0  0  0  0  0  0  0
   -4.4195   -1.4397   -0.2652 C   0  0  0  0  0  0  0  0  0  0  0  0
    4.1500   -1.8971   -0.4751 C   0  0  0  0  0  0  0  0  0  0  0  0
   -1.5913    2.2935   -0.0728 H   0  0  0  0  0  0  0  0  0  0  0  0
   -1.2797    1.6632    1.5298 H   0  0  0  0  0  0  0  0  0  0  0  0
   -0.3642   -1.1481    0.5324 H   0  0  0  0  0  0  0  0  0  0  0  0
    0.3479   -0.1986    1.8293 H   0  0  0  0  0  0  0  0  0  0  0  0
    2.0089    1.5749   -0.1697 H   0  0  0  0  0  0  0  0  0  0  0  0
    1.1841    2.1246    1.3024 H   0  0  0  0  0  0  0  0  0  0  0  0
    0.6050    2.9900   -1.6068 H   0  0  0  0  0  0  0  0  0  0  0  0
   -0.1815    3.6875   -0.1571 H   0  0  0  0  0  0  0  0  0  0  0  0
   -2.8219    1.1528   -1.7679 H   0  0  0  0  0  0  0  0  0  0  0  0
    0.8558   -2.0993   -1.2741 H   0  0  0  0  0  0  0  0  0  0  0  0
   -2.1922   -0.5587    2.1400 H   0  0  0  0  0  0  0  0  0  0  0  0
    2.7882    0.1979    1.8222 H   0  0  0  0  0  0  0  0  0  0  0  0
   -4.6281   -0.4806   -2.1824 H   0  0  0  0  0  0  0  0  0  0  0  0
    3.0512   -2.9930   -1.9688 H   0  0  0  0  0  0  0  0  0  0  0  0
   -3.9874   -2.1933    1.7060 H   0  0  0  0  0  0  0  0  0  0  0  0
    4.9748   -0.6916    1.1080 H   0  0  0  0  0  0  0  0  0  0  0  0
   -5.2136   -2.1570   -0.4502 H   0  0  0  0  0  0  0  0  0  0  0  0
    5.1140   -2.2913   -0.7829 H   0  0  0  0  0  0  0  0  0  0  0  0
  1  8  1  0  0  0  0
  2  3  1  0  0  0  0
  2  4  1  0  0  0  0
  2  5  1  0  0  0  0
  3  6  1  0  0  0  0
  3 19  1  0  0  0  0
  3 20  1  0  0  0  0
  4  7  1  0  0  0  0
  4 21  1  0  0  0  0
  4 22  1  0  0  0  0
  5  8  1  0  0  0  0
  5 23  1  0  0  0  0
  5 24  1  0  0  0  0
  6  9  2  0  0  0  0
  6 11  1  0  0  0  0
  7 10  2  0  0  0  0
  7 12  1  0  0  0  0
  8 25  1  0  0  0  0
  8 26  1  0  0  0  0
  9 13  1  0  0  0  0
  9 27  1  0  0  0  0
 10 14  1  0  0  0  0
 10 28  1  0  0  0  0
 11 15  2  0  0  0  0
 11 29  1  0  0  0  0
 12 16  2  0  0  0  0
 12 30  1  0  0  0  0
 13 17  2  0  0  0  0
 13 31  1  0  0  0  0
 14 18  2  0  0  0  0
 14 32  1  0  0  0  0
 15 17  1  0  0  0  0
 15 33  1  0  0  0  0
 16 18  1  0  0  0  0
 16 34  1  0  0  0  0
 17 35  1  0  0  0  0
 18 36  1  0  0  0  0
M  END
> <PUBCHEM_COMPOUND_CID>
14378

> <PUBCHEM_CONFORMER_RMSD>
0.8

> <PUBCHEM_CONFORMER_DIVERSEORDER>
1
9
7
5
11
12
10
6
13
8
4
2
3

> <PUBCHEM_MMFF94_PARTIAL_CHARGES>
28
1 -0.23
10 -0.15
11 -0.15
12 -0.15
13 -0.15
14 -0.15
15 -0.15
16 -0.15
17 -0.15
18 -0.15
2 -0.81
27 0.15
28 0.15
29 0.15
3 0.41
30 0.15
31 0.15
32 0.15
33 0.15
34 0.15
35 0.15
36 0.15
4 0.41
5 0.27
6 -0.14
7 -0.14
8 0.23
9 -0.15

> <PUBCHEM_EFFECTIVE_ROTOR_COUNT>
6

> <PUBCHEM_PHARMACOPHORE_FEATURES>
4
1 1 hydrophobe
1 2 cation
6 6 9 11 13 15 17 rings
6 7 10 12 14 16 18 rings

> <PUBCHEM_HEAVY_ATOM_COUNT>
18

> <PUBCHEM_ATOM_DEF_STEREO_COUNT>
0

> <PUBCHEM_ATOM_UDEF_STEREO_COUNT>
0

> <PUBCHEM_BOND_DEF_STEREO_COUNT>
0

> <PUBCHEM_BOND_UDEF_STEREO_COUNT>
0

> <PUBCHEM_ISOTOPIC_ATOM_COUNT>
0

> <PUBCHEM_COMPONENT_COUNT>
1

> <PUBCHEM_CACTVS_TAUTO_COUNT>
1

> <PUBCHEM_CONFORMER_ID>
0000382A00000001

> <PUBCHEM_MMFF94_ENERGY>
53.5655

> <PUBCHEM_FEATURE_SELFOVERLAP>
20.297

> <PUBCHEM_SHAPE_FINGERPRINT>
11578080 2 16772419303610237404
12363563 72 18340482356574880515
12553582 1 18270397329594646011
12707595 3 18343581849931163443
12788726 201 17767126771253410968
133893 2 18056736798311918024
13544653 18 18040720298207618435
13681431 1 18410292501748921024
15502722 9 18268710502600836893
15842332 3 17822836590761020041
167882 2 18198061370416410836
17357779 13 18263659496400843741
1813 80 18187632648196245342
19784866 34 10159694690023474222
20388580 30 18335422348445285517
20645477 70 18268158569649648751
20671657 53 18341617035594953123
20693207 138 17846494773792231283
20871999 31 18199190774878832597
212916 134 10303233670072366454
21304303 282 16833794279022859116
221490 88 18270959021127950075
23402539 116 18268430303593449058
23419403 2 17772782444671754372
23557571 272 18121504811015049916
23559900 14 18340217310190916569
3057174 1 17763735499620922772
314173 41 18412825819562381651
458136 41 17907000799583959337
46194498 28 18269296590112366119
5262128 65 18411134740719462857
6025842 7 18193843635237469885
6669772 16 17903624195549863732
6913067 236 18044118915062637954
7364860 26 18266457611728425408
81228 2 18050004694667825032
81539 233 17983859973563812140
9709674 26 18270686346924298731

> <PUBCHEM_SHAPE_MULTIPOLES>
371.39
8.3
4.01
1.16
4.61
5.92
0.06
-5.73
0.83
-5.24
1
0.36
-0.34
0.48

> <PUBCHEM_SHAPE_SELFOVERLAP>
762.296

> <PUBCHEM_SHAPE_VOLUME>
219

> <PUBCHEM_COORDINATE_TYPE>
2
5
10

$$$$

