585988
  -OEChem-06241222453D

 39 39  0     0  0  0  0  0  0999 V2000
    3.7208    1.0770    1.2421 O   0  0  0  0  0  0  0  0  0  0  0  0
   -1.9531    0.4324   -0.5698 N   0  0  0  0  0  0  0  0  0  0  0  0
   -0.6931   -1.6418    0.0106 C   0  0  0  0  0  0  0  0  0  0  0  0
    0.6307   -1.2715   -0.7299 C   0  0  0  0  0  0  0  0  0  0  0  0
   -1.4926   -0.3683    0.3907 C   0  0  0  0  0  0  0  0  0  0  0  0
    1.6198   -0.4228    0.0870 C   0  0  0  0  0  0  0  0  0  0  0  0
   -1.4980   -2.6312   -0.8636 C   0  0  0  0  0  0  0  0  0  0  0  0
   -0.3265   -2.4050    1.3089 C   0  0  0  0  0  0  0  0  0  0  0  0
   -1.7988    0.0594    1.6139 C   0  0  0  0  0  0  0  0  0  0  0  0
   -2.6108    1.4621    0.0508 C   0  0  0  0  0  0  0  0  0  0  0  0
    2.9088   -0.1395   -0.6861 C   0  0  0  0  0  0  0  0  0  0  0  0
   -2.5301    1.2558    1.4103 C   0  0  0  0  0  0  0  0  0  0  0  0
   -1.8080    0.2773   -2.0020 C   0  0  0  0  0  0  0  0  0  0  0  0
   -3.2595    2.5541   -0.7040 C   0  0  0  0  0  0  0  0  0  0  0  0
    3.9153    0.6948    0.0892 C   0  0  0  0  0  0  0  0  0  0  0  0
    5.1752    1.0673   -0.6482 C   0  0  0  0  0  0  0  0  0  0  0  0
    0.4572   -0.7957   -1.6947 H   0  0  0  0  0  0  0  0  0  0  0  0
    1.1438   -2.2117   -0.9820 H   0  0  0  0  0  0  0  0  0  0  0  0
    1.1561    0.5298    0.3679 H   0  0  0  0  0  0  0  0  0  0  0  0
    1.8900   -0.9327    1.0174 H   0  0  0  0  0  0  0  0  0  0  0  0
   -1.2054   -3.6684   -0.6560 H   0  0  0  0  0  0  0  0  0  0  0  0
   -1.3144   -2.5058   -1.9340 H   0  0  0  0  0  0  0  0  0  0  0  0
   -2.5749   -2.5584   -0.6757 H   0  0  0  0  0  0  0  0  0  0  0  0
   -1.2257   -2.7951    1.8027 H   0  0  0  0  0  0  0  0  0  0  0  0
    0.1993   -1.7865    2.0434 H   0  0  0  0  0  0  0  0  0  0  0  0
    0.3195   -3.2645    1.0916 H   0  0  0  0  0  0  0  0  0  0  0  0
   -1.5645   -0.3790    2.5730 H   0  0  0  0  0  0  0  0  0  0  0  0
    3.3959   -1.0841   -0.9534 H   0  0  0  0  0  0  0  0  0  0  0  0
    2.6701    0.4000   -1.6096 H   0  0  0  0  0  0  0  0  0  0  0  0
   -2.9517    1.8947    2.1742 H   0  0  0  0  0  0  0  0  0  0  0  0
   -0.8210    0.6297   -2.3021 H   0  0  0  0  0  0  0  0  0  0  0  0
   -2.0280   -0.7303   -2.3274 H   0  0  0  0  0  0  0  0  0  0  0  0
   -2.5427    0.9094   -2.5088 H   0  0  0  0  0  0  0  0  0  0  0  0
   -3.6459    3.3202   -0.0231 H   0  0  0  0  0  0  0  0  0  0  0  0
   -2.5512    3.0455   -1.3789 H   0  0  0  0  0  0  0  0  0  0  0  0
   -4.1056    2.1785   -1.2884 H   0  0  0  0  0  0  0  0  0  0  0  0
    5.6886    0.1605   -0.9775 H   0  0  0  0  0  0  0  0  0  0  0  0
    4.9247    1.6930   -1.5082 H   0  0  0  0  0  0  0  0  0  0  0  0
    5.8405    1.6256    0.0162 H   0  0  0  0  0  0  0  0  0  0  0  0
  1 15  2  0  0  0  0
  2  5  1  0  0  0  0
  2 10  1  0  0  0  0
  2 13  1  0  0  0  0
  3  4  1  0  0  0  0
  3  5  1  0  0  0  0
  3  7  1  0  0  0  0
  3  8  1  0  0  0  0
  4  6  1  0  0  0  0
  4 17  1  0  0  0  0
  4 18  1  0  0  0  0
  5  9  2  0  0  0  0
  6 11  1  0  0  0  0
  6 19  1  0  0  0  0
  6 20  1  0  0  0  0
  7 21  1  0  0  0  0
  7 22  1  0  0  0  0
  7 23  1  0  0  0  0
  8 24  1  0  0  0  0
  8 25  1  0  0  0  0
  8 26  1  0  0  0  0
  9 12  1  0  0  0  0
  9 27  1  0  0  0  0
 10 12  2  0  0  0  0
 10 14  1  0  0  0  0
 11 15  1  0  0  0  0
 11 28  1  0  0  0  0
 11 29  1  0  0  0  0
 12 30  1  0  0  0  0
 13 31  1  0  0  0  0
 13 32  1  0  0  0  0
 13 33  1  0  0  0  0
 14 34  1  0  0  0  0
 14 35  1  0  0  0  0
 14 36  1  0  0  0  0
 15 16  1  0  0  0  0
 16 37  1  0  0  0  0
 16 38  1  0  0  0  0
 16 39  1  0  0  0  0
M  END
> <PUBCHEM_COMPOUND_CID>
585988

> <PUBCHEM_CONFORMER_RMSD>
0.6

> <PUBCHEM_CONFORMER_DIVERSEORDER>
1
22
58
32
40
14
57
35
56
24
16
28
2
54
53
27
18
15
31
8
52
20
34
45
25
3
29
17
23
4
48
11
12
37
55
21
41
10
39
43
19
26
44
30
38
5
42
46
33
49
9
51
7
50
36
13
47
6

> <PUBCHEM_MMFF94_PARTIAL_CHARGES>
14
1 -0.57
10 -0.33
11 0.06
12 -0.15
13 0.26
14 0.18
15 0.45
16 0.06
2 0.05
27 0.15
3 0.18
30 0.15
5 -0.33
9 -0.15

> <PUBCHEM_EFFECTIVE_ROTOR_COUNT>
5

> <PUBCHEM_PHARMACOPHORE_FEATURES>
5
1 1 acceptor
1 2 cation
3 3 7 8 hydrophobe
4 3 4 6 11 hydrophobe
5 2 5 9 10 12 rings

> <PUBCHEM_HEAVY_ATOM_COUNT>
16

> <PUBCHEM_ATOM_DEF_STEREO_COUNT>
0

> <PUBCHEM_ATOM_UDEF_STEREO_COUNT>
0

> <PUBCHEM_BOND_DEF_STEREO_COUNT>
0

> <PUBCHEM_BOND_UDEF_STEREO_COUNT>
0

> <PUBCHEM_ISOTOPIC_ATOM_COUNT>
0

> <PUBCHEM_COMPONENT_COUNT>
1

> <PUBCHEM_CACTVS_TAUTO_COUNT>
3

> <PUBCHEM_CONFORMER_ID>
0008F10400000001

> <PUBCHEM_MMFF94_ENERGY>
39.0382

> <PUBCHEM_FEATURE_SELFOVERLAP>
25.399

> <PUBCHEM_SHAPE_FINGERPRINT>
11127187 94 6699806441154793185
12500047 106 18409166602390132798
12633257 1 15482376642698597172
13024252 1 14045472106970936991
13134695 92 17048247459099607495
14123260 362 18409163290738427620
14142880 1 18273219694507514933
15061688 2 17845097436115354085
15534591 1 17604137229272887843
15775835 57 18411420656360041416
16945 1 17701226296839788539
17093844 174 18335139757784575064
17834072 32 18412822491126887692
18186145 218 18115577283499479822
19765921 60 18190192350205204555
20361792 2 9006762194579369171
20645477 56 18261099752017230610
20871999 31 5256401661113022225
21524375 3 18337951306635533731
2306618 200 17845384253630473806
23419403 2 13844984975230072303
23500284 214 18335127705199000792
23557571 272 18042679495064060150
23559900 14 17895185628900972654
25 1 18042115617265502576
27216 239 18130498669610940928
4028521 119 18041281045064629168
5706482 22 18059863856477896483
81228 2 18195794176949345907
90316 7 15482377751132306957

> <PUBCHEM_SHAPE_MULTIPOLES>
318.42
7.19
2.56
1.54
11.6
0.87
-0.02
-5.98
0.3
-1.93
0.14
-0.83
0
0.15

> <PUBCHEM_SHAPE_SELFOVERLAP>
639.312

> <PUBCHEM_SHAPE_VOLUME>
191.6

> <PUBCHEM_COORDINATE_TYPE>
2
5
10

$$$$

