17395849
  -OEChem-06241222523D

 41 43  0     0  0  0  0  0  0999 V2000
    0.9185    3.1751   -0.5492 S   0  0  0  0  0  0  0  0  0  0  0  0
    0.3575   -2.2348    0.7178 O   0  0  0  0  0  0  0  0  0  0  0  0
    1.5757    1.2356   -2.2031 O   0  0  0  0  0  0  0  0  0  0  0  0
    2.9384   -0.8728    1.5416 O   0  0  0  0  0  0  0  0  0  0  0  0
    2.8368    1.4949   -0.2392 N   0  0  0  0  0  0  0  0  0  0  0  0
    2.9104   -1.8936   -0.5473 N   0  0  0  0  0  0  0  0  0  0  0  0
    2.8287    2.2596    0.9934 C   0  0  0  0  0  0  0  0  0  0  0  0
    3.7303    0.3620   -0.3782 C   0  0  0  0  0  0  0  0  0  0  0  0
    2.1544    3.5863    0.7106 C   0  0  0  0  0  0  0  0  0  0  0  0
    1.8380    1.7932   -1.1481 C   0  0  0  0  0  0  0  0  0  0  0  0
    3.1403   -0.8387    0.3304 C   0  0  0  0  0  0  0  0  0  0  0  0
    2.3998   -3.1732   -0.1346 C   0  0  0  0  0  0  0  0  0  0  0  0
    0.8832   -3.2100   -0.1814 C   0  0  0  0  0  0  0  0  0  0  0  0
   -2.3756    0.2066    0.4745 C   0  0  0  0  0  0  0  0  0  0  0  0
   -3.3270   -0.5434   -0.2571 C   0  0  0  0  0  0  0  0  0  0  0  0
   -0.8449   -1.6828    0.3991 C   0  0  0  0  0  0  0  0  0  0  0  0
   -1.1392   -0.3775    0.7942 C   0  0  0  0  0  0  0  0  0  0  0  0
   -3.0138   -1.8558   -0.6469 C   0  0  0  0  0  0  0  0  0  0  0  0
   -1.7805   -2.4204   -0.3201 C   0  0  0  0  0  0  0  0  0  0  0  0
   -2.6885    1.5192    0.8640 C   0  0  0  0  0  0  0  0  0  0  0  0
   -4.5634    0.0408   -0.5769 C   0  0  0  0  0  0  0  0  0  0  0  0
   -3.9218    2.0839    0.5377 C   0  0  0  0  0  0  0  0  0  0  0  0
   -4.8575    1.3460   -0.1812 C   0  0  0  0  0  0  0  0  0  0  0  0
    2.2697    1.6923    1.7464 H   0  0  0  0  0  0  0  0  0  0  0  0
    3.8513    2.4093    1.3543 H   0  0  0  0  0  0  0  0  0  0  0  0
    4.7035    0.6016    0.0616 H   0  0  0  0  0  0  0  0  0  0  0  0
    3.8787    0.1617   -1.4442 H   0  0  0  0  0  0  0  0  0  0  0  0
    1.7030    4.0259    1.6035 H   0  0  0  0  0  0  0  0  0  0  0  0
    2.8635    4.2999    0.2792 H   0  0  0  0  0  0  0  0  0  0  0  0
    2.8217   -3.9304   -0.8027 H   0  0  0  0  0  0  0  0  0  0  0  0
    2.7488   -3.3729    0.8845 H   0  0  0  0  0  0  0  0  0  0  0  0
    3.1009   -1.7704   -1.5372 H   0  0  0  0  0  0  0  0  0  0  0  0
    0.5756   -3.0119   -1.2168 H   0  0  0  0  0  0  0  0  0  0  0  0
    0.5295   -4.2022    0.1204 H   0  0  0  0  0  0  0  0  0  0  0  0
   -0.3955    0.1861    1.3550 H   0  0  0  0  0  0  0  0  0  0  0  0
   -3.7328   -2.4527   -1.2044 H   0  0  0  0  0  0  0  0  0  0  0  0
   -1.6030   -3.4485   -0.6218 H   0  0  0  0  0  0  0  0  0  0  0  0
   -1.9727    2.1141    1.4275 H   0  0  0  0  0  0  0  0  0  0  0  0
   -5.3098   -0.5173   -1.1383 H   0  0  0  0  0  0  0  0  0  0  0  0
   -4.1513    3.1000    0.8453 H   0  0  0  0  0  0  0  0  0  0  0  0
   -5.8174    1.7861   -0.4350 H   0  0  0  0  0  0  0  0  0  0  0  0
  1  9  1  0  0  0  0
  1 10  1  0  0  0  0
  2 13  1  0  0  0  0
  2 16  1  0  0  0  0
  3 10  2  0  0  0  0
  4 11  2  0  0  0  0
  5  7  1  0  0  0  0
  5  8  1  0  0  0  0
  5 10  1  0  0  0  0
  6 11  1  0  0  0  0
  6 12  1  0  0  0  0
  6 32  1  0  0  0  0
  7  9  1  0  0  0  0
  7 24  1  0  0  0  0
  7 25  1  0  0  0  0
  8 11  1  0  0  0  0
  8 26  1  0  0  0  0
  8 27  1  0  0  0  0
  9 28  1  0  0  0  0
  9 29  1  0  0  0  0
 12 13  1  0  0  0  0
 12 30  1  0  0  0  0
 12 31  1  0  0  0  0
 13 33  1  0  0  0  0
 13 34  1  0  0  0  0
 14 15  1  0  0  0  0
 14 17  1  0  0  0  0
 14 20  2  0  0  0  0
 15 18  1  0  0  0  0
 15 21  2  0  0  0  0
 16 17  2  0  0  0  0
 16 19  1  0  0  0  0
 17 35  1  0  0  0  0
 18 19  2  0  0  0  0
 18 36  1  0  0  0  0
 19 37  1  0  0  0  0
 20 22  1  0  0  0  0
 20 38  1  0  0  0  0
 21 23  1  0  0  0  0
 21 39  1  0  0  0  0
 22 23  2  0  0  0  0
 22 40  1  0  0  0  0
 23 41  1  0  0  0  0
M  END
> <PUBCHEM_COMPOUND_CID>
17395849

> <PUBCHEM_CONFORMER_RMSD>
1.2

> <PUBCHEM_CONFORMER_DIVERSEORDER>
1
42
68
18
113
104
40
50
73
118
101
31
39
41
8
74
84
25
66
81
125
128
19
122
98
53
9
12
26
14
108
102
65
116
58
7
32
37
63
71
110
137
109
49
16
77
90
33
83
87
95
91
93
21
78
2
17
47
94
27
29
51
119
35
23
133
123
75
136
114
36
67
85
82
44
43
100
11
111
28
10
45
132
13
105
72
46
69
88
76
48
54
79
135
22
3
34
24
60
6
134
115
57
103
126
89
127
62
61
86
52
5
4
38
121
107
55
131
20
56
99
64
92
106
30
120
59
129
112
80
97
96
15
124
117
130
70

> <PUBCHEM_MMFF94_PARTIAL_CHARGES>
29
1 -0.37
10 0.77
11 0.57
12 0.3
13 0.28
16 0.08
17 -0.15
18 -0.15
19 -0.15
2 -0.36
20 -0.15
21 -0.15
22 -0.15
23 -0.15
3 -0.57
32 0.37
35 0.15
36 0.15
37 0.15
38 0.15
39 0.15
4 -0.57
40 0.15
41 0.15
5 -0.66
6 -0.73
7 0.3
8 0.36
9 0.23

> <PUBCHEM_EFFECTIVE_ROTOR_COUNT>
7.8

> <PUBCHEM_PHARMACOPHORE_FEATURES>
6
1 2 acceptor
1 4 acceptor
1 6 donor
5 1 5 7 9 10 rings
6 14 15 16 17 18 19 rings
6 14 15 20 21 22 23 rings

> <PUBCHEM_HEAVY_ATOM_COUNT>
23

> <PUBCHEM_ATOM_DEF_STEREO_COUNT>
0

> <PUBCHEM_ATOM_UDEF_STEREO_COUNT>
0

> <PUBCHEM_BOND_DEF_STEREO_COUNT>
0

> <PUBCHEM_BOND_UDEF_STEREO_COUNT>
0

> <PUBCHEM_ISOTOPIC_ATOM_COUNT>
0

> <PUBCHEM_COMPONENT_COUNT>
1

> <PUBCHEM_CACTVS_TAUTO_COUNT>
2

> <PUBCHEM_CONFORMER_ID>
0109708900000001

> <PUBCHEM_MMFF94_ENERGY>
54.0601

> <PUBCHEM_FEATURE_SELFOVERLAP>
30.473

> <PUBCHEM_SHAPE_FINGERPRINT>
10708813 3 18410009940081901481
11370993 70 18193002508510191056
12633257 1 18341906207369348936
13122387 1 18051694648286899077
14955137 171 17759493936280252315
15210252 30 18057866104665208540
15338160 23 10800821999546251822
17492 89 18337110064445512383
17980427 23 18118153370561371026
19930381 70 18338801092101433073
20567600 299 18335706069521164832
21298829 104 18263648540293498497
21860390 5 18262234538042903206
22749437 52 18196658388756367477
23227448 37 18410013234817819823
23558518 356 18128538163275089667
23559900 14 18188213104695308624
25265897 201 17823672287985460263
3014063 31 17979354492672012372
474 4 18272369797641627307
5048184 11 18197771111693340941
5939293 188 18411423925326051962
6443956 14 18267302217210447820
7832392 63 18337107972690554242
9981440 41 18050576135939876328

> <PUBCHEM_SHAPE_MULTIPOLES>
449.61
8.18
4.49
1.16
5.54
0.02
-0.22
-2.47
-0.21
-2.88
0.06
-0.56
-0.4
-0.48

> <PUBCHEM_SHAPE_SELFOVERLAP>
946.395

> <PUBCHEM_SHAPE_VOLUME>
254.2

> <PUBCHEM_COORDINATE_TYPE>
2
5
10

$$$$

