47205535
  -OEChem-06241222593D

 32 32  0     0  0  0  0  0  0999 V2000
    6.2653   -1.1311    0.6327 Br  0  0  0  0  0  0  0  0  0  0  0  0
   -3.1435   -0.5884    1.3638 O   0  0  0  0  0  0  0  0  0  0  0  0
   -0.4781    0.8737   -0.6691 O   0  0  0  0  0  0  0  0  0  0  0  0
   -2.5382   -0.8526   -0.8617 N   0  0  0  0  0  0  0  0  0  0  0  0
    1.0657   -0.8512   -0.2685 N   0  0  0  0  0  0  0  0  0  0  0  0
   -4.7001    0.0770   -0.3671 C   0  0  0  0  0  0  0  0  0  0  0  0
   -5.6559    0.4893    0.7486 C   0  0  0  0  0  0  0  0  0  0  0  0
   -3.3938   -0.4836    0.1660 C   0  0  0  0  0  0  0  0  0  0  0  0
   -1.2311   -1.4127   -0.6130 C   0  0  0  0  0  0  0  0  0  0  0  0
   -6.9685    1.0162    0.1920 C   0  0  0  0  0  0  0  0  0  0  0  0
   -0.1914   -0.3102   -0.5245 C   0  0  0  0  0  0  0  0  0  0  0  0
    2.2892   -0.1564   -0.1165 C   0  0  0  0  0  0  0  0  0  0  0  0
    3.4652   -0.8616    0.1390 C   0  0  0  0  0  0  0  0  0  0  0  0
    2.3190    1.2342   -0.2221 C   0  0  0  0  0  0  0  0  0  0  0  0
    4.6709   -0.1763    0.2888 C   0  0  0  0  0  0  0  0  0  0  0  0
    3.5246    1.9195   -0.0720 C   0  0  0  0  0  0  0  0  0  0  0  0
    4.7006    1.2143    0.1834 C   0  0  0  0  0  0  0  0  0  0  0  0
   -5.1680   -0.6889   -0.9973 H   0  0  0  0  0  0  0  0  0  0  0  0
   -4.4697    0.9413   -1.0014 H   0  0  0  0  0  0  0  0  0  0  0  0
   -5.1904    1.2611    1.3731 H   0  0  0  0  0  0  0  0  0  0  0  0
   -5.8598   -0.3670    1.4026 H   0  0  0  0  0  0  0  0  0  0  0  0
   -1.2417   -1.9841    0.3209 H   0  0  0  0  0  0  0  0  0  0  0  0
   -0.9877   -2.0773   -1.4475 H   0  0  0  0  0  0  0  0  0  0  0  0
   -2.8237   -0.7119   -1.8265 H   0  0  0  0  0  0  0  0  0  0  0  0
   -7.4754    0.2529   -0.4068 H   0  0  0  0  0  0  0  0  0  0  0  0
   -7.6370    1.3067    1.0085 H   0  0  0  0  0  0  0  0  0  0  0  0
   -6.8021    1.8946   -0.4397 H   0  0  0  0  0  0  0  0  0  0  0  0
    1.1307   -1.8629   -0.1771 H   0  0  0  0  0  0  0  0  0  0  0  0
    3.4390   -1.9461    0.2207 H   0  0  0  0  0  0  0  0  0  0  0  0
    1.4521    1.8492   -0.4178 H   0  0  0  0  0  0  0  0  0  0  0  0
    3.5489    3.0024   -0.1539 H   0  0  0  0  0  0  0  0  0  0  0  0
    5.6316    1.7635    0.2973 H   0  0  0  0  0  0  0  0  0  0  0  0
  1 15  1  0  0  0  0
  2  8  2  0  0  0  0
  3 11  2  0  0  0  0
  4  8  1  0  0  0  0
  4  9  1  0  0  0  0
  4 24  1  0  0  0  0
  5 11  1  0  0  0  0
  5 12  1  0  0  0  0
  5 28  1  0  0  0  0
  6  7  1  0  0  0  0
  6  8  1  0  0  0  0
  6 18  1  0  0  0  0
  6 19  1  0  0  0  0
  7 10  1  0  0  0  0
  7 20  1  0  0  0  0
  7 21  1  0  0  0  0
  9 11  1  0  0  0  0
  9 22  1  0  0  0  0
  9 23  1  0  0  0  0
 10 25  1  0  0  0  0
 10 26  1  0  0  0  0
 10 27  1  0  0  0  0
 12 13  2  0  0  0  0
 12 14  1  0  0  0  0
 13 15  1  0  0  0  0
 13 29  1  0  0  0  0
 14 16  2  0  0  0  0
 14 30  1  0  0  0  0
 15 17  2  0  0  0  0
 16 17  1  0  0  0  0
 16 31  1  0  0  0  0
 17 32  1  0  0  0  0
M  END
> <PUBCHEM_COMPOUND_CID>
47205535

> <PUBCHEM_CONFORMER_RMSD>
0.8

> <PUBCHEM_CONFORMER_DIVERSEORDER>
1
122
14
123
127
102
149
29
61
125
19
70
48
134
144
41
155
45
140
137
8
115
54
90
133
18
27
120
83
130
132
124
81
69
64
13
112
121
104
23
117
77
57
17
85
139
113
141
9
68
154
114
55
95
50
11
22
2
89
80
151
131
51
150
49
21
87
119
84
107
40
26
143
28
32
147
88
79
96
31
4
94
145
10
74
135
86
63
106
58
128
75
62
110
35
105
15
46
99
52
12
60
118
97
109
100
38
76
148
3
126
152
25
30
138
103
156
136
36
43
7
24
39
92
73
16
56
82
91
153
20
59
101
129
72
71
66
142
78
34
116
146
53
33
37
108
42
44
65
5
98
67
6
93
111
47

> <PUBCHEM_MMFF94_PARTIAL_CHARGES>
21
1 -0.11
11 0.57
12 0.12
13 -0.15
14 -0.15
15 0.11
16 -0.15
17 -0.15
2 -0.57
24 0.37
28 0.37
29 0.15
3 -0.57
30 0.15
31 0.15
32 0.15
4 -0.73
5 -0.55
6 0.06
8 0.57
9 0.36

> <PUBCHEM_EFFECTIVE_ROTOR_COUNT>
7

> <PUBCHEM_PHARMACOPHORE_FEATURES>
7
1 1 hydrophobe
1 10 hydrophobe
1 2 acceptor
1 3 acceptor
1 4 donor
1 5 donor
6 12 13 14 15 16 17 rings

> <PUBCHEM_HEAVY_ATOM_COUNT>
17

> <PUBCHEM_ATOM_DEF_STEREO_COUNT>
0

> <PUBCHEM_ATOM_UDEF_STEREO_COUNT>
0

> <PUBCHEM_BOND_DEF_STEREO_COUNT>
0

> <PUBCHEM_BOND_UDEF_STEREO_COUNT>
0

> <PUBCHEM_ISOTOPIC_ATOM_COUNT>
0

> <PUBCHEM_COMPONENT_COUNT>
1

> <PUBCHEM_CACTVS_TAUTO_COUNT>
4

> <PUBCHEM_CONFORMER_ID>
02D04C9F00000001

> <PUBCHEM_MMFF94_ENERGY>
33.7924

> <PUBCHEM_FEATURE_SELFOVERLAP>
35.52

> <PUBCHEM_SHAPE_FINGERPRINT>
10354089 29 18413387631307167448
11089746 13 17748834003102049545
117890 112 17967813851391935937
12236239 1 18186524280282770086
12596602 18 18131064905794489161
12616971 3 18408609136413649094
12714333 28 14996003255031098515
13167372 99 18334293201622678305
13533116 47 17774728674283139195
13675066 3 17988644064625183231
14123256 10 9511455632567757619
14251718 22 8142084264563905147
14251764 18 18409169883122674327
14341114 176 17846779602716348540
14350574 20 9871744689721902159
14617045 38 15769775783859442274
15048467 5 18186520986053403568
15348495 7 17917704652722807841
15501527 24 9655574114841370379
15527383 91 18343584044996821332
15537594 2 13614243655089037937
17834076 25 17894349986625014411
19489759 90 15864068771417906179
20157964 124 18187642548750165575
20281389 69 18409731759719809185
20767249 213 18186518809280152073
21150785 3 7204765999390198194
21267235 1 18342177821818871410
212847 35 18114181913060289392
2297311 6 15482673510859150343
23035841 295 15410896271080162794
23402539 116 17240208720544441157
23503953 91 18260275109812082482
26918003 58 18202001018882295722
2767999 5 17603586344236100305
2838139 119 18334300890220922917
300161 21 17240488000386934854
33382 64 15625950884354935088
351380 180 18410291411164461161
351380 3 12535346779512163169
4072396 5 17603307072556519870
465052 167 12247676080401158705
5104073 3 18268157470064395898
5207 217 7853564721191377140
5924683 9 18057881343294246163
8272917 22 18333447668691314870

> <PUBCHEM_SHAPE_MULTIPOLES>
334.09
16.48
1.5
0.87
13.13
0.39
-0.11
2.03
-4.28
-1.36
0.07
0.42
-0.11
-0.56

> <PUBCHEM_SHAPE_SELFOVERLAP>
660.789

> <PUBCHEM_SHAPE_VOLUME>
201.9

> <PUBCHEM_COORDINATE_TYPE>
2
5
10

$$$$

