13299
  -OEChem-06261208423D

 34 35  0     0  0  0  0  0  0999 V2000
   -7.1586    0.0887    0.0595 O   0  0  0  0  0  0  0  0  0  0  0  0
    5.3769    1.8070    0.3830 O   0  0  0  0  0  0  0  0  0  0  0  0
    4.9042   -0.4409   -0.1472 N   0  0  0  0  0  0  0  0  0  0  0  0
    0.7258   -0.6360   -0.0080 C   0  0  0  0  0  0  0  0  0  0  0  0
    3.5109   -0.5058   -0.1019 C   0  0  0  0  0  0  0  0  0  0  0  0
    1.3768    0.5691    0.2555 C   0  0  0  0  0  0  0  0  0  0  0  0
    1.4672   -1.7760   -0.3184 C   0  0  0  0  0  0  0  0  0  0  0  0
   -3.0327    0.2864   -0.0241 C   0  0  0  0  0  0  0  0  0  0  0  0
   -0.7262   -0.7039    0.0406 C   0  0  0  0  0  0  0  0  0  0  0  0
    2.7693    0.6342    0.2085 C   0  0  0  0  0  0  0  0  0  0  0  0
    2.8598   -1.7110   -0.3654 C   0  0  0  0  0  0  0  0  0  0  0  0
   -1.5612    0.3579   -0.0539 C   0  0  0  0  0  0  0  0  0  0  0  0
   -3.6475   -0.8325    0.5135 C   0  0  0  0  0  0  0  0  0  0  0  0
   -3.7726    1.3407   -0.5344 C   0  0  0  0  0  0  0  0  0  0  0  0
   -5.0404   -0.8992    0.5414 C   0  0  0  0  0  0  0  0  0  0  0  0
   -5.1657    1.2742   -0.5064 C   0  0  0  0  0  0  0  0  0  0  0  0
   -5.7997    0.1542    0.0316 C   0  0  0  0  0  0  0  0  0  0  0  0
    5.7264    0.6690    0.0871 C   0  0  0  0  0  0  0  0  0  0  0  0
    7.1871    0.3239   -0.0610 C   0  0  0  0  0  0  0  0  0  0  0  0
    0.8435    1.4764    0.5236 H   0  0  0  0  0  0  0  0  0  0  0  0
    0.9778   -2.7241   -0.5284 H   0  0  0  0  0  0  0  0  0  0  0  0
   -1.1240   -1.7113    0.1277 H   0  0  0  0  0  0  0  0  0  0  0  0
    3.2025    1.5999    0.4290 H   0  0  0  0  0  0  0  0  0  0  0  0
    3.4251   -2.6071   -0.6087 H   0  0  0  0  0  0  0  0  0  0  0  0
   -1.1690    1.3614   -0.1958 H   0  0  0  0  0  0  0  0  0  0  0  0
   -3.0982   -1.6647    0.9420 H   0  0  0  0  0  0  0  0  0  0  0  0
   -3.2940    2.2195   -0.9583 H   0  0  0  0  0  0  0  0  0  0  0  0
    5.3721   -1.3144   -0.3805 H   0  0  0  0  0  0  0  0  0  0  0  0
   -5.5228   -1.7749    0.9676 H   0  0  0  0  0  0  0  0  0  0  0  0
   -5.7517    2.0977   -0.9054 H   0  0  0  0  0  0  0  0  0  0  0  0
    7.4640   -0.4344    0.6767 H   0  0  0  0  0  0  0  0  0  0  0  0
    7.7973    1.2168    0.1003 H   0  0  0  0  0  0  0  0  0  0  0  0
    7.3780   -0.0584   -1.0678 H   0  0  0  0  0  0  0  0  0  0  0  0
   -7.4253   -0.7544    0.4646 H   0  0  0  0  0  0  0  0  0  0  0  0
  1 17  1  0  0  0  0
  1 34  1  0  0  0  0
  2 18  2  0  0  0  0
  3  5  1  0  0  0  0
  3 18  1  0  0  0  0
  3 28  1  0  0  0  0
  4  6  2  0  0  0  0
  4  7  1  0  0  0  0
  4  9  1  0  0  0  0
  5 10  2  0  0  0  0
  5 11  1  0  0  0  0
  6 10  1  0  0  0  0
  6 20  1  0  0  0  0
  7 11  2  0  0  0  0
  7 21  1  0  0  0  0
  8 12  1  0  0  0  0
  8 13  2  0  0  0  0
  8 14  1  0  0  0  0
  9 12  2  0  0  0  0
  9 22  1  0  0  0  0
 10 23  1  0  0  0  0
 11 24  1  0  0  0  0
 12 25  1  0  0  0  0
 13 15  1  0  0  0  0
 13 26  1  0  0  0  0
 14 16  2  0  0  0  0
 14 27  1  0  0  0  0
 15 17  2  0  0  0  0
 15 29  1  0  0  0  0
 16 17  1  0  0  0  0
 16 30  1  0  0  0  0
 18 19  1  0  0  0  0
 19 31  1  0  0  0  0
 19 32  1  0  0  0  0
 19 33  1  0  0  0  0
M  END
> <PUBCHEM_COMPOUND_CID>
13299

> <PUBCHEM_CONFORMER_RMSD>
0.6

> <PUBCHEM_CONFORMER_DIVERSEORDER>
1
3
2
4

> <PUBCHEM_MMFF94_PARTIAL_CHARGES>
31
1 -0.53
10 -0.15
11 -0.15
12 -0.18
13 -0.15
14 -0.15
15 -0.15
16 -0.15
17 0.08
18 0.57
19 0.06
2 -0.57
20 0.15
21 0.15
22 0.15
23 0.15
24 0.15
25 0.15
26 0.15
27 0.15
28 0.37
29 0.15
3 -0.55
30 0.15
34 0.45
4 0.03
5 0.12
6 -0.15
7 -0.15
8 0.03
9 -0.18

> <PUBCHEM_EFFECTIVE_ROTOR_COUNT>
4

> <PUBCHEM_PHARMACOPHORE_FEATURES>
5
1 1 donor
1 2 acceptor
1 3 donor
6 4 5 6 7 10 11 rings
6 8 13 14 15 16 17 rings

> <PUBCHEM_HEAVY_ATOM_COUNT>
19

> <PUBCHEM_ATOM_DEF_STEREO_COUNT>
0

> <PUBCHEM_ATOM_UDEF_STEREO_COUNT>
0

> <PUBCHEM_BOND_DEF_STEREO_COUNT>
0

> <PUBCHEM_BOND_UDEF_STEREO_COUNT>
1

> <PUBCHEM_ISOTOPIC_ATOM_COUNT>
0

> <PUBCHEM_COMPONENT_COUNT>
1

> <PUBCHEM_CACTVS_TAUTO_COUNT>
4

> <PUBCHEM_CONFORMER_ID>
000033F300000001

> <PUBCHEM_MMFF94_ENERGY>
59.5099

> <PUBCHEM_FEATURE_SELFOVERLAP>
25.371

> <PUBCHEM_SHAPE_FINGERPRINT>
10 15 18272092656714024032
10638233 991 16298387929015852104
10835480 77 18340492278561348669
10968037 39 18410575085565139591
11287383 113 18413106156340993402
11315181 36 18342453738812463073
11719270 70 18334862757668687578
12091667 2 18342457032719887739
12236239 1 16950560008388789083
12730499 353 18335135406197155782
13073987 5 17916869144292293323
13533116 47 16443623609751119902
14123256 10 17676488350129334640
14251718 22 18412544318963475731
14251732 16 18412262805168698075
14341114 176 18411412938657277383
14933364 13 18412261731579867772
16079462 125 18201167619455199901
17844677 252 18262791994590428581
18335252 98 18410852145453152715
19489759 90 17275103933917975609
200 152 17967254230475889043
20281389 69 18272655645232577292
20645477 70 18188489214931013943
21150785 3 16370729214164874021
21641784 216 17968640701511948936
21709351 56 18339649949042104621
220451 1 16443068318056332895
22224240 67 18343305842606063066
23198884 109 15357694184540392087
23402539 116 17917996061573771375
23402655 69 18186804707297919095
23559900 14 18411423869660581193
2916195 48 18344149189225045096
300161 21 17704077317458088155
335352 9 18335136484971964534
34797466 226 17967808353575328052
3545911 37 18408041809957124547
4073 2 18060132111656235050
4214541 1 18341331188927181789
42788 4 18413107268658395184
4325135 7 18408325467299513399
4340502 62 17561366184409261450
5104073 3 18200870807208064115
542803 24 16515684455168454499

> <PUBCHEM_SHAPE_MULTIPOLES>
374.29
18.09
1.49
0.69
1.6
0.12
0
-4.81
-0.39
0.58
0.1
-0.17
0
0.93

> <PUBCHEM_SHAPE_SELFOVERLAP>
799.153

> <PUBCHEM_SHAPE_VOLUME>
207.5

> <PUBCHEM_COORDINATE_TYPE>
2
5
10

$$$$

