6390
  -OEChem-06261201172D

  6  5  0     0  0  0  0  0  0999 V2000
    2.0000   -0.5000    0.0000 Cl  0  0  0  0  0  0  0  0  0  0  0  0
    2.3660    0.8660    0.0000 Cl  0  0  0  0  0  0  0  0  0  0  0  0
    3.3660   -0.8660    0.0000 Cl  0  0  0  0  0  0  0  0  0  0  0  0
    3.7320    0.5000    0.0000 S   0  0  0  0  0  0  0  0  0  0  0  0
    2.8660    0.0000    0.0000 C   0  0  0  0  0  0  0  0  0  0  0  0
    4.2690    0.1900    0.0000 H   0  0  0  0  0  0  0  0  0  0  0  0
  1  5  1  0  0  0  0
  2  5  1  0  0  0  0
  3  5  1  0  0  0  0
  4  5  1  0  0  0  0
  4  6  1  0  0  0  0
M  END
> <PUBCHEM_COMPOUND_CID>
6390

> <PUBCHEM_COMPOUND_CANONICALIZED>
1

> <PUBCHEM_CACTVS_COMPLEXITY>
28.4

> <PUBCHEM_CACTVS_HBOND_ACCEPTOR>
1

> <PUBCHEM_CACTVS_HBOND_DONOR>
1

> <PUBCHEM_CACTVS_ROTATABLE_BOND>
0

> <PUBCHEM_CACTVS_SUBSKEYS>
AAADcQAAAABGAAAAAAAAAAAAAAAAAAAAAAAAAAAAAAAAAAAAAAAAAAYAAAAAAAAAAIAAAAAAAAQAAAAAAAAAAAAAAAAAAAAAAAAAAAAAAAAAAAAAAAAAAAAAAAAAAAAAAAAAAAAAAAAAAAAAAAAAAAAAAA==

> <PUBCHEM_IUPAC_OPENEYE_NAME>
trichloromethanethiol

> <PUBCHEM_IUPAC_CAS_NAME>
trichloromethanethiol

> <PUBCHEM_IUPAC_NAME>
trichloromethanethiol

> <PUBCHEM_IUPAC_SYSTEMATIC_NAME>
tris(chloranyl)methanethiol

> <PUBCHEM_IUPAC_TRADITIONAL_NAME>
trichloromethanethiol

> <PUBCHEM_IUPAC_INCHI>
InChI=1S/CHCl3S/c2-1(3,4)5/h5H

> <PUBCHEM_IUPAC_INCHIKEY>
ILSVYQNRDXIWLK-UHFFFAOYSA-N

> <PUBCHEM_XLOGP3_AA>
2.5

> <PUBCHEM_EXACT_MASS>
149.886454

> <PUBCHEM_MOLECULAR_FORMULA>
CHCl3S

> <PUBCHEM_MOLECULAR_WEIGHT>
151.44264

> <PUBCHEM_OPENEYE_CAN_SMILES>
C(S)(Cl)(Cl)Cl

> <PUBCHEM_OPENEYE_ISO_SMILES>
C(S)(Cl)(Cl)Cl

> <PUBCHEM_CACTVS_TPSA>
1

> <PUBCHEM_MONOISOTOPIC_WEIGHT>
149.886454

> <PUBCHEM_TOTAL_CHARGE>
0

> <PUBCHEM_HEAVY_ATOM_COUNT>
5

> <PUBCHEM_ATOM_DEF_STEREO_COUNT>
0

> <PUBCHEM_ATOM_UDEF_STEREO_COUNT>
0

> <PUBCHEM_BOND_DEF_STEREO_COUNT>
0

> <PUBCHEM_BOND_UDEF_STEREO_COUNT>
0

> <PUBCHEM_ISOTOPIC_ATOM_COUNT>
0

> <PUBCHEM_COMPONENT_COUNT>
1

> <PUBCHEM_CACTVS_TAUTO_COUNT>
1

> <PUBCHEM_COORDINATE_TYPE>
1
5
255

$$$$

