17395644
  -OEChem-06241222512D

 53 57  0     1  0  0  0  0  0999 V2000
    3.4088   -1.4271    0.0000 O   0  0  0  0  0  0  0  0  0  0  0  0
    5.2599   -0.1779    0.0000 O   0  0  0  0  0  0  0  0  0  0  0  0
    3.4088   -3.6741    0.0000 O   0  0  0  0  0  0  0  0  0  0  0  0
    6.9554   -0.5315    0.0000 N   0  0  0  0  0  0  0  0  0  0  0  0
    8.5177    2.7180    0.0000 N   0  0  0  0  0  0  0  0  0  0  0  0
    6.8547   -1.5264    0.0000 C   0  0  3  0  0  0  0  0  0  0  0  0
    7.7698   -1.9296    0.0000 C   0  0  0  0  0  0  0  0  0  0  0  0
    8.4361   -1.1839    0.0000 C   0  0  0  0  0  0  0  0  0  0  0  0
    7.9328   -0.3198    0.0000 C   0  0  0  0  0  0  0  0  0  0  0  0
    5.9906   -2.0298    0.0000 C   0  0  0  0  0  0  0  0  0  0  0  0
    6.2097    0.1347    0.0000 C   0  0  0  0  0  0  0  0  0  0  0  0
    5.0846   -1.5159    0.0000 C   0  0  0  0  0  0  0  0  0  0  0  0
    5.9906   -3.0714    0.0000 C   0  0  0  0  0  0  0  0  0  0  0  0
    6.4139    1.1137    0.0000 C   0  0  0  0  0  0  0  0  0  0  0  0
    4.1906   -2.0506    0.0000 C   0  0  0  0  0  0  0  0  0  0  0  0
    5.0846   -3.5852    0.0000 C   0  0  0  0  0  0  0  0  0  0  0  0
    4.1906   -3.0506    0.0000 C   0  0  0  0  0  0  0  0  0  0  0  0
    7.3637    1.4264    0.0000 C   0  0  0  0  0  0  0  0  0  0  0  0
    5.6681    1.7799    0.0000 C   0  0  0  0  0  0  0  0  0  0  0  0
    2.4339   -1.6496    0.0000 C   0  0  0  0  0  0  0  0  0  0  0  0
    2.0000   -2.5506    0.0000 C   0  0  0  0  0  0  0  0  0  0  0  0
    2.4339   -3.4516    0.0000 C   0  0  0  0  0  0  0  0  0  0  0  0
    7.5679    2.4053    0.0000 C   0  0  0  0  0  0  0  0  0  0  0  0
    5.8723    2.7589    0.0000 C   0  0  0  0  0  0  0  0  0  0  0  0
    6.8221    3.0716    0.0000 C   0  0  0  0  0  0  0  0  0  0  0  0
    9.3290    2.1333    0.0000 C   0  0  0  0  0  0  0  0  0  0  0  0
    8.8231    3.6702    0.0000 C   0  0  0  0  0  0  0  0  0  0  0  0
   10.1357    2.7242    0.0000 C   0  0  0  0  0  0  0  0  0  0  0  0
    9.8231    3.6741    0.0000 C   0  0  0  0  0  0  0  0  0  0  0  0
    6.3335   -1.1908    0.0000 H   0  0  0  0  0  0  0  0  0  0  0  0
    7.4619   -2.4678    0.0000 H   0  0  0  0  0  0  0  0  0  0  0  0
    8.2728   -2.2921    0.0000 H   0  0  0  0  0  0  0  0  0  0  0  0
    8.8528   -1.6431    0.0000 H   0  0  0  0  0  0  0  0  0  0  0  0
    8.9363   -0.8176    0.0000 H   0  0  0  0  0  0  0  0  0  0  0  0
    8.4982   -0.0655    0.0000 H   0  0  0  0  0  0  0  0  0  0  0  0
    7.7389    0.2691    0.0000 H   0  0  0  0  0  0  0  0  0  0  0  0
    5.0774   -0.8960    0.0000 H   0  0  0  0  0  0  0  0  0  0  0  0
    6.5264   -3.3835    0.0000 H   0  0  0  0  0  0  0  0  0  0  0  0
    5.0774   -4.2052    0.0000 H   0  0  0  0  0  0  0  0  0  0  0  0
    7.8261    1.0133    0.0000 H   0  0  0  0  0  0  0  0  0  0  0  0
    5.0792    1.5861    0.0000 H   0  0  0  0  0  0  0  0  0  0  0  0
    2.4339   -1.0296    0.0000 H   0  0  0  0  0  0  0  0  0  0  0  0
    1.8294   -1.5117    0.0000 H   0  0  0  0  0  0  0  0  0  0  0  0
    1.5153   -2.1640    0.0000 H   0  0  0  0  0  0  0  0  0  0  0  0
    1.5153   -2.9372    0.0000 H   0  0  0  0  0  0  0  0  0  0  0  0
    1.8294   -3.5895    0.0000 H   0  0  0  0  0  0  0  0  0  0  0  0
    2.4339   -4.0716    0.0000 H   0  0  0  0  0  0  0  0  0  0  0  0
    5.4099    3.1720    0.0000 H   0  0  0  0  0  0  0  0  0  0  0  0
    6.9487    3.6785    0.0000 H   0  0  0  0  0  0  0  0  0  0  0  0
    9.3314    1.5133    0.0000 H   0  0  0  0  0  0  0  0  0  0  0  0
    8.4567    4.1704    0.0000 H   0  0  0  0  0  0  0  0  0  0  0  0
   10.1855    4.1771    0.0000 H   0  0  0  0  0  0  0  0  0  0  0  0
   10.7261    2.5349    0.0000 H   0  0  0  0  0  0  0  0  0  0  0  0
  1 15  1  0  0  0  0
  1 20  1  0  0  0  0
  2 11  2  0  0  0  0
  3 17  1  0  0  0  0
  3 22  1  0  0  0  0
  4  6  1  0  0  0  0
  4  9  1  0  0  0  0
  4 11  1  0  0  0  0
  5 23  1  0  0  0  0
  5 26  1  0  0  0  0
  5 27  1  0  0  0  0
  6  7  1  0  0  0  0
  6 10  1  0  0  0  0
  6 30  1  0  0  0  0
  7  8  1  0  0  0  0
  7 31  1  0  0  0  0
  7 32  1  0  0  0  0
  8  9  1  0  0  0  0
  8 33  1  0  0  0  0
  8 34  1  0  0  0  0
  9 35  1  0  0  0  0
  9 36  1  0  0  0  0
 10 12  2  0  0  0  0
 10 13  1  0  0  0  0
 11 14  1  0  0  0  0
 12 15  1  0  0  0  0
 12 37  1  0  0  0  0
 13 16  2  0  0  0  0
 13 38  1  0  0  0  0
 14 18  2  0  0  0  0
 14 19  1  0  0  0  0
 15 17  2  0  0  0  0
 16 17  1  0  0  0  0
 16 39  1  0  0  0  0
 18 23  1  0  0  0  0
 18 40  1  0  0  0  0
 19 24  2  0  0  0  0
 19 41  1  0  0  0  0
 20 21  1  0  0  0  0
 20 42  1  0  0  0  0
 20 43  1  0  0  0  0
 21 22  1  0  0  0  0
 21 44  1  0  0  0  0
 21 45  1  0  0  0  0
 22 46  1  0  0  0  0
 22 47  1  0  0  0  0
 23 25  2  0  0  0  0
 24 25  1  0  0  0  0
 24 48  1  0  0  0  0
 25 49  1  0  0  0  0
 26 28  2  0  0  0  0
 26 50  1  0  0  0  0
 27 29  2  0  0  0  0
 27 51  1  0  0  0  0
 28 29  1  0  0  0  0
 28 53  1  0  0  0  0
 29 52  1  0  0  0  0
M  END
> <PUBCHEM_COMPOUND_CID>
17395644

> <PUBCHEM_COMPOUND_CANONICALIZED>
1

> <PUBCHEM_CACTVS_COMPLEXITY>
564

> <PUBCHEM_CACTVS_HBOND_ACCEPTOR>
3

> <PUBCHEM_CACTVS_HBOND_DONOR>
0

> <PUBCHEM_CACTVS_ROTATABLE_BOND>
3

> <PUBCHEM_CACTVS_SUBSKEYS>
AAADceB7MAAAAAAAAAAAAAAAAAAAAWLAAAAwYAAABIAAAAAB0AAAHgAAAAAADCzhmgY8xpMMFACoAjV3VACCiCA1IiAI2CE+7NgNJvLEtZuGOSrlxhHK6Ye82LOOIAABQAAAQABAAAKAAACAAAAAAAAAAA==

> <PUBCHEM_IUPAC_OPENEYE_NAME>
[2-(3,4-dihydro-2H-1,5-benzodioxepin-7-yl)pyrrolidin-1-yl]-(3-pyrrol-1-ylphenyl)methanone

> <PUBCHEM_IUPAC_CAS_NAME>
[2-(3,4-dihydro-2H-1,5-benzodioxepin-7-yl)-1-pyrrolidinyl]-[3-(1-pyrrolyl)phenyl]methanone

> <PUBCHEM_IUPAC_NAME>
[2-(3,4-dihydro-2H-1,5-benzodioxepin-7-yl)pyrrolidin-1-yl]-(3-pyrrol-1-ylphenyl)methanone

> <PUBCHEM_IUPAC_SYSTEMATIC_NAME>
[2-(3,4-dihydro-2H-1,5-benzodioxepin-7-yl)pyrrolidin-1-yl]-(3-pyrrol-1-ylphenyl)methanone

> <PUBCHEM_IUPAC_TRADITIONAL_NAME>
[2-(3,4-dihydro-2H-1,5-benzodioxepin-7-yl)pyrrolidino]-(3-pyrrol-1-ylphenyl)methanone

> <PUBCHEM_IUPAC_INCHI>
InChI=1S/C24H24N2O3/c27-24(19-6-3-7-20(16-19)25-11-1-2-12-25)26-13-4-8-21(26)18-9-10-22-23(17-18)29-15-5-14-28-22/h1-3,6-7,9-12,16-17,21H,4-5,8,13-15H2

> <PUBCHEM_IUPAC_INCHIKEY>
PTBTWSWTFCTXGA-UHFFFAOYSA-N

> <PUBCHEM_XLOGP3_AA>
3.9

> <PUBCHEM_EXACT_MASS>
388.178693

> <PUBCHEM_MOLECULAR_FORMULA>
C24H24N2O3

> <PUBCHEM_MOLECULAR_WEIGHT>
388.45896

> <PUBCHEM_OPENEYE_CAN_SMILES>
C1CC(N(C1)C(=O)C2=CC(=CC=C2)N3C=CC=C3)C4=CC5=C(C=C4)OCCCO5

> <PUBCHEM_OPENEYE_ISO_SMILES>
C1CC(N(C1)C(=O)C2=CC(=CC=C2)N3C=CC=C3)C4=CC5=C(C=C4)OCCCO5

> <PUBCHEM_CACTVS_TPSA>
43.7

> <PUBCHEM_MONOISOTOPIC_WEIGHT>
388.178693

> <PUBCHEM_TOTAL_CHARGE>
0

> <PUBCHEM_HEAVY_ATOM_COUNT>
29

> <PUBCHEM_ATOM_DEF_STEREO_COUNT>
0

> <PUBCHEM_ATOM_UDEF_STEREO_COUNT>
1

> <PUBCHEM_BOND_DEF_STEREO_COUNT>
0

> <PUBCHEM_BOND_UDEF_STEREO_COUNT>
0

> <PUBCHEM_ISOTOPIC_ATOM_COUNT>
0

> <PUBCHEM_COMPONENT_COUNT>
1

> <PUBCHEM_CACTVS_TAUTO_COUNT>
1

> <PUBCHEM_COORDINATE_TYPE>
1
5
255

> <PUBCHEM_BONDANNOTATIONS>
10  12  8
10  13  8
12  15  8
13  16  8
14  18  8
14  19  8
15  17  8
16  17  8
18  23  8
19  24  8
23  25  8
24  25  8
26  28  8
27  29  8
28  29  8
5  26  8
5  27  8
6  10  3

$$$$

