47205785
  -OEChem-06241223003D

 42 42  0     0  0  0  0  0  0999 V2000
    2.0589    0.7703   -0.7666 O   0  0  0  0  0  0  0  0  0  0  0  0
   -1.7187   -0.0698    1.2383 O   0  0  0  0  0  0  0  0  0  0  0  0
   -0.2975    2.5742   -1.3636 O   0  0  0  0  0  0  0  0  0  0  0  0
    0.9337    3.0196    0.5567 N   0  0  0  0  0  0  0  0  0  0  0  0
   -2.4455    1.8738    0.1975 N   0  0  0  0  0  0  0  0  0  0  0  0
   -3.6457   -0.1668   -0.2243 C   0  0  0  0  0  0  0  0  0  0  0  0
    2.2424    3.0550   -0.0559 C   0  0  0  0  0  0  0  0  0  0  0  0
   -3.7192   -1.6588    0.0872 C   0  0  0  0  0  0  0  0  0  0  0  0
    2.8917    1.6832   -0.0635 C   0  0  0  0  0  0  0  0  0  0  0  0
   -1.4416    2.7473    0.7572 C   0  0  0  0  0  0  0  0  0  0  0  0
   -2.4965    0.5192    0.4923 C   0  0  0  0  0  0  0  0  0  0  0  0
   -0.2334    2.7806   -0.1543 C   0  0  0  0  0  0  0  0  0  0  0  0
    2.1048   -0.5402   -0.3683 C   0  0  0  0  0  0  0  0  0  0  0  0
   -4.8558   -2.3303   -0.6661 C   0  0  0  0  0  0  0  0  0  0  0  0
    1.0243   -2.6847   -0.1021 C   0  0  0  0  0  0  0  0  0  0  0  0
    0.9778   -1.3505   -0.5063 C   0  0  0  0  0  0  0  0  0  0  0  0
    3.2783   -1.0642    0.1740 C   0  0  0  0  0  0  0  0  0  0  0  0
    2.1978   -3.2088    0.4401 C   0  0  0  0  0  0  0  0  0  0  0  0
    3.3248   -2.3986    0.5779 C   0  0  0  0  0  0  0  0  0  0  0  0
   -0.1805   -3.5508   -0.2503 C   0  0  0  0  0  0  0  0  0  0  0  0
   -3.5136   -0.0156   -1.3024 H   0  0  0  0  0  0  0  0  0  0  0  0
   -4.5795    0.3247    0.0738 H   0  0  0  0  0  0  0  0  0  0  0  0
    2.8545    3.7680    0.5048 H   0  0  0  0  0  0  0  0  0  0  0  0
    2.1309    3.4218   -1.0822 H   0  0  0  0  0  0  0  0  0  0  0  0
   -3.8554   -1.8110    1.1644 H   0  0  0  0  0  0  0  0  0  0  0  0
   -2.7755   -2.1414   -0.1855 H   0  0  0  0  0  0  0  0  0  0  0  0
    3.0313    1.3795    0.9826 H   0  0  0  0  0  0  0  0  0  0  0  0
    3.8677    1.7389   -0.5583 H   0  0  0  0  0  0  0  0  0  0  0  0
   -1.8631    3.7546    0.8218 H   0  0  0  0  0  0  0  0  0  0  0  0
   -1.1728    2.3994    1.7595 H   0  0  0  0  0  0  0  0  0  0  0  0
    0.8835    3.1722    1.5597 H   0  0  0  0  0  0  0  0  0  0  0  0
   -3.1228    2.2725   -0.4462 H   0  0  0  0  0  0  0  0  0  0  0  0
   -4.7250   -2.2264   -1.7480 H   0  0  0  0  0  0  0  0  0  0  0  0
   -4.8886   -3.3983   -0.4292 H   0  0  0  0  0  0  0  0  0  0  0  0
   -5.8207   -1.8916   -0.3925 H   0  0  0  0  0  0  0  0  0  0  0  0
    0.0670   -0.9364   -0.9317 H   0  0  0  0  0  0  0  0  0  0  0  0
    4.1860   -0.4761    0.2721 H   0  0  0  0  0  0  0  0  0  0  0  0
    2.2468   -4.2466    0.7591 H   0  0  0  0  0  0  0  0  0  0  0  0
    4.2403   -2.8087    0.9943 H   0  0  0  0  0  0  0  0  0  0  0  0
   -0.8160   -3.4644    0.6364 H   0  0  0  0  0  0  0  0  0  0  0  0
   -0.7615   -3.2684   -1.1346 H   0  0  0  0  0  0  0  0  0  0  0  0
    0.1005   -4.6020   -0.3764 H   0  0  0  0  0  0  0  0  0  0  0  0
  1  9  1  0  0  0  0
  1 13  1  0  0  0  0
  2 11  2  0  0  0  0
  3 12  2  0  0  0  0
  4  7  1  0  0  0  0
  4 12  1  0  0  0  0
  4 31  1  0  0  0  0
  5 10  1  0  0  0  0
  5 11  1  0  0  0  0
  5 32  1  0  0  0  0
  6  8  1  0  0  0  0
  6 11  1  0  0  0  0
  6 21  1  0  0  0  0
  6 22  1  0  0  0  0
  7  9  1  0  0  0  0
  7 23  1  0  0  0  0
  7 24  1  0  0  0  0
  8 14  1  0  0  0  0
  8 25  1  0  0  0  0
  8 26  1  0  0  0  0
  9 27  1  0  0  0  0
  9 28  1  0  0  0  0
 10 12  1  0  0  0  0
 10 29  1  0  0  0  0
 10 30  1  0  0  0  0
 13 16  1  0  0  0  0
 13 17  2  0  0  0  0
 14 33  1  0  0  0  0
 14 34  1  0  0  0  0
 14 35  1  0  0  0  0
 15 16  2  0  0  0  0
 15 18  1  0  0  0  0
 15 20  1  0  0  0  0
 16 36  1  0  0  0  0
 17 19  1  0  0  0  0
 17 37  1  0  0  0  0
 18 19  2  0  0  0  0
 18 38  1  0  0  0  0
 19 39  1  0  0  0  0
 20 40  1  0  0  0  0
 20 41  1  0  0  0  0
 20 42  1  0  0  0  0
M  END
> <PUBCHEM_COMPOUND_CID>
47205785

> <PUBCHEM_CONFORMER_RMSD>
1.2

> <PUBCHEM_CONFORMER_DIVERSEORDER>
2
56
99
47
94
40
77
51
45
75
39
102
22
65
50
44
80
67
17
90
37
89
69
6
78
16
28
41
66
26
42
13
91
92
3
24
1
61
21
85
96
55
73
49
54
31
83
34
81
7
88
71
53
97
57
8
36
84
18
70
48
38
43
11
87
82
33
72
86
93
76
64
95
32
79
4
101
52
100
98
74
62
10
30
35
27
59
29
58
12
15
23
63
46
5
68
9
19
25
14
60
20

> <PUBCHEM_MMFF94_PARTIAL_CHARGES>
24
1 -0.36
10 0.36
11 0.57
12 0.57
13 0.08
15 -0.14
16 -0.15
17 -0.15
18 -0.15
19 -0.15
2 -0.57
20 0.14
3 -0.57
31 0.37
32 0.37
36 0.15
37 0.15
38 0.15
39 0.15
4 -0.73
5 -0.73
6 0.06
7 0.3
9 0.28

> <PUBCHEM_EFFECTIVE_ROTOR_COUNT>
10

> <PUBCHEM_PHARMACOPHORE_FEATURES>
7
1 1 acceptor
1 14 hydrophobe
1 2 acceptor
1 3 acceptor
1 4 donor
1 5 donor
6 13 15 16 17 18 19 rings

> <PUBCHEM_HEAVY_ATOM_COUNT>
20

> <PUBCHEM_ATOM_DEF_STEREO_COUNT>
0

> <PUBCHEM_ATOM_UDEF_STEREO_COUNT>
0

> <PUBCHEM_BOND_DEF_STEREO_COUNT>
0

> <PUBCHEM_BOND_UDEF_STEREO_COUNT>
0

> <PUBCHEM_ISOTOPIC_ATOM_COUNT>
0

> <PUBCHEM_COMPONENT_COUNT>
1

> <PUBCHEM_CACTVS_TAUTO_COUNT>
4

> <PUBCHEM_CONFORMER_ID>
02D04D9900000002

> <PUBCHEM_MMFF94_ENERGY>
37.3412

> <PUBCHEM_FEATURE_SELFOVERLAP>
35.521

> <PUBCHEM_SHAPE_MULTIPOLES>
384.02
6.81
5.39
0.89
6.41
0.52
0.02
-4.04
0.17
-1.65
-0.06
0.13
0.17
-0.94

> <PUBCHEM_SHAPE_SELFOVERLAP>
768.418

> <PUBCHEM_SHAPE_VOLUME>
226.2

> <PUBCHEM_COORDINATE_TYPE>
2
5
10

$$$$

