12634
  -OEChem-06261207112D

 37 37  0     0  0  0  0  0  0999 V2000
    3.7320    0.0670    0.0000 O   0  0  0  0  0  0  0  0  0  0  0  0
    5.4641    2.0670    0.0000 N   0  3  0  0  0  0  0  0  0  0  0  0
    4.5981    1.5670    0.0000 C   0  0  0  0  0  0  0  0  0  0  0  0
    6.3301    2.5670    0.0000 C   0  0  0  0  0  0  0  0  0  0  0  0
    4.9641    2.9330    0.0000 C   0  0  0  0  0  0  0  0  0  0  0  0
    5.9641    1.2010    0.0000 C   0  0  0  0  0  0  0  0  0  0  0  0
    4.5981    0.5670    0.0000 C   0  0  0  0  0  0  0  0  0  0  0  0
    3.7320   -0.9330    0.0000 C   0  0  0  0  0  0  0  0  0  0  0  0
    2.8660   -1.4330    0.0000 C   0  0  0  0  0  0  0  0  0  0  0  0
    4.5981   -1.4330    0.0000 C   0  0  0  0  0  0  0  0  0  0  0  0
    2.8660   -2.4330    0.0000 C   0  0  0  0  0  0  0  0  0  0  0  0
    4.5981   -2.4330    0.0000 C   0  0  0  0  0  0  0  0  0  0  0  0
    2.0000   -0.9330    0.0000 C   0  0  0  0  0  0  0  0  0  0  0  0
    5.4641   -0.9330    0.0000 C   0  0  0  0  0  0  0  0  0  0  0  0
    3.7320   -2.9330    0.0000 C   0  0  0  0  0  0  0  0  0  0  0  0
    4.3860    2.1496    0.0000 H   0  0  0  0  0  0  0  0  0  0  0  0
    3.9875    1.4593    0.0000 H   0  0  0  0  0  0  0  0  0  0  0  0
    6.6401    2.0300    0.0000 H   0  0  0  0  0  0  0  0  0  0  0  0
    6.8671    2.8770    0.0000 H   0  0  0  0  0  0  0  0  0  0  0  0
    6.0201    3.1039    0.0000 H   0  0  0  0  0  0  0  0  0  0  0  0
    5.5010    3.2430    0.0000 H   0  0  0  0  0  0  0  0  0  0  0  0
    4.6541    3.4700    0.0000 H   0  0  0  0  0  0  0  0  0  0  0  0
    4.4272    2.6230    0.0000 H   0  0  0  0  0  0  0  0  0  0  0  0
    5.4272    0.8910    0.0000 H   0  0  0  0  0  0  0  0  0  0  0  0
    6.2741    0.6640    0.0000 H   0  0  0  0  0  0  0  0  0  0  0  0
    6.5010    1.5110    0.0000 H   0  0  0  0  0  0  0  0  0  0  0  0
    4.8101   -0.0156    0.0000 H   0  0  0  0  0  0  0  0  0  0  0  0
    5.2087    0.6746    0.0000 H   0  0  0  0  0  0  0  0  0  0  0  0
    2.3291   -2.7430    0.0000 H   0  0  0  0  0  0  0  0  0  0  0  0
    5.1350   -2.7430    0.0000 H   0  0  0  0  0  0  0  0  0  0  0  0
    2.3100   -0.3961    0.0000 H   0  0  0  0  0  0  0  0  0  0  0  0
    1.4631   -0.6230    0.0000 H   0  0  0  0  0  0  0  0  0  0  0  0
    1.6900   -1.4700    0.0000 H   0  0  0  0  0  0  0  0  0  0  0  0
    5.7741   -1.4700    0.0000 H   0  0  0  0  0  0  0  0  0  0  0  0
    6.0010   -0.6230    0.0000 H   0  0  0  0  0  0  0  0  0  0  0  0
    5.1541   -0.3961    0.0000 H   0  0  0  0  0  0  0  0  0  0  0  0
    3.7320   -3.5530    0.0000 H   0  0  0  0  0  0  0  0  0  0  0  0
  1  7  1  0  0  0  0
  1  8  1  0  0  0  0
  2  3  1  0  0  0  0
  2  4  1  0  0  0  0
  2  5  1  0  0  0  0
  2  6  1  0  0  0  0
  3  7  1  0  0  0  0
  3 16  1  0  0  0  0
  3 17  1  0  0  0  0
  4 18  1  0  0  0  0
  4 19  1  0  0  0  0
  4 20  1  0  0  0  0
  5 21  1  0  0  0  0
  5 22  1  0  0  0  0
  5 23  1  0  0  0  0
  6 24  1  0  0  0  0
  6 25  1  0  0  0  0
  6 26  1  0  0  0  0
  7 27  1  0  0  0  0
  7 28  1  0  0  0  0
  8  9  2  0  0  0  0
  8 10  1  0  0  0  0
  9 11  1  0  0  0  0
  9 13  1  0  0  0  0
 10 12  2  0  0  0  0
 10 14  1  0  0  0  0
 11 15  2  0  0  0  0
 11 29  1  0  0  0  0
 12 15  1  0  0  0  0
 12 30  1  0  0  0  0
 13 31  1  0  0  0  0
 13 32  1  0  0  0  0
 13 33  1  0  0  0  0
 14 34  1  0  0  0  0
 14 35  1  0  0  0  0
 14 36  1  0  0  0  0
 15 37  1  0  0  0  0
M  CHG  1   2   1
M  END
> <PUBCHEM_COMPOUND_CID>
12634

> <PUBCHEM_COMPOUND_CANONICALIZED>
1

> <PUBCHEM_CACTVS_COMPLEXITY>
176

> <PUBCHEM_CACTVS_HBOND_ACCEPTOR>
1

> <PUBCHEM_CACTVS_HBOND_DONOR>
0

> <PUBCHEM_CACTVS_ROTATABLE_BOND>
4

> <PUBCHEM_CACTVS_SUBSKEYS>
AAADceByIAAAAAAAAAAAAAAAAAAAAAAAAAAwAAAAAAAAAAABAAAAHgAAAAAADAThmAYyBoMABACAAiBCAAACCAAgIAAIiAAMCIgOJiKEMRqDOCCkwBEYqAeAwGAOAAACAAAIAAAAAAQAABAAAAAAAAAAAA==

> <PUBCHEM_IUPAC_OPENEYE_NAME>
2-(2,6-dimethylphenoxy)ethyl-trimethyl-ammonium

> <PUBCHEM_IUPAC_CAS_NAME>
2-(2,6-dimethylphenoxy)ethyl-trimethylammonium

> <PUBCHEM_IUPAC_NAME>
2-(2,6-dimethylphenoxy)ethyl-trimethylazanium

> <PUBCHEM_IUPAC_SYSTEMATIC_NAME>
2-(2,6-dimethylphenoxy)ethyl-trimethyl-azanium

> <PUBCHEM_IUPAC_TRADITIONAL_NAME>
2-(2,6-dimethylphenoxy)ethyl-trimethyl-ammonium

> <PUBCHEM_IUPAC_INCHI>
InChI=1S/C13H22NO/c1-11-7-6-8-12(2)13(11)15-10-9-14(3,4)5/h6-8H,9-10H2,1-5H3/q+1

> <PUBCHEM_IUPAC_INCHIKEY>
RXYWAURTGUPANZ-UHFFFAOYSA-N

> <PUBCHEM_XLOGP3>
3.1

> <PUBCHEM_EXACT_MASS>
208.170139

> <PUBCHEM_MOLECULAR_FORMULA>
C13H22NO+

> <PUBCHEM_MOLECULAR_WEIGHT>
208.31988

> <PUBCHEM_OPENEYE_CAN_SMILES>
CC1=C(C(=CC=C1)C)OCC[N+](C)(C)C

> <PUBCHEM_OPENEYE_ISO_SMILES>
CC1=C(C(=CC=C1)C)OCC[N+](C)(C)C

> <PUBCHEM_CACTVS_TPSA>
9.2

> <PUBCHEM_MONOISOTOPIC_WEIGHT>
208.170139

> <PUBCHEM_TOTAL_CHARGE>
1

> <PUBCHEM_HEAVY_ATOM_COUNT>
15

> <PUBCHEM_ATOM_DEF_STEREO_COUNT>
0

> <PUBCHEM_ATOM_UDEF_STEREO_COUNT>
0

> <PUBCHEM_BOND_DEF_STEREO_COUNT>
0

> <PUBCHEM_BOND_UDEF_STEREO_COUNT>
0

> <PUBCHEM_ISOTOPIC_ATOM_COUNT>
0

> <PUBCHEM_COMPONENT_COUNT>
1

> <PUBCHEM_CACTVS_TAUTO_COUNT>
1

> <PUBCHEM_COORDINATE_TYPE>
1
5
255

> <PUBCHEM_BONDANNOTATIONS>
10  12  8
11  15  8
12  15  8
8  10  8
8  9  8
9  11  8

$$$$

