3820
  -OEChem-06251223422D

 31 34  0     0  0  0  0  0  0999 V2000
    2.0000   -1.6049    0.0000 Br  0  0  0  0  0  0  0  0  0  0  0  0
    5.2364    2.5713    0.0000 O   0  0  0  0  0  0  0  0  0  0  0  0
    6.0343   -1.5050    0.0000 N   0  0  0  0  0  0  0  0  0  0  0  0
    6.6703    1.6703    0.0000 N   0  0  0  0  0  0  0  0  0  0  0  0
    5.2693   -0.0864    0.0000 C   0  0  0  0  0  0  0  0  0  0  0  0
    6.1703   -0.5203    0.0000 C   0  0  0  0  0  0  0  0  0  0  0  0
    4.5842   -0.8067    0.0000 C   0  0  0  0  0  0  0  0  0  0  0  0
    5.0468    0.8885    0.0000 C   0  0  0  0  0  0  0  0  0  0  0  0
    5.0561   -1.6817    0.0000 C   0  0  0  0  0  0  0  0  0  0  0  0
    7.0713   -0.0864    0.0000 C   0  0  0  0  0  0  0  0  0  0  0  0
    7.2938    0.8885    0.0000 C   0  0  0  0  0  0  0  0  0  0  0  0
    5.6703    1.6703    0.0000 C   0  0  0  0  0  0  0  0  0  0  0  0
    3.5498   -0.7607    0.0000 C   0  0  0  0  0  0  0  0  0  0  0  0
    4.5262   -2.5713    0.0000 C   0  0  0  0  0  0  0  0  0  0  0  0
    7.8238   -0.8066    0.0000 C   0  0  0  0  0  0  0  0  0  0  0  0
    8.2843    1.2108    0.0000 C   0  0  0  0  0  0  0  0  0  0  0  0
    2.9995   -1.6378    0.0000 C   0  0  0  0  0  0  0  0  0  0  0  0
    3.4909   -2.5492    0.0000 C   0  0  0  0  0  0  0  0  0  0  0  0
    8.8215   -0.5073    0.0000 C   0  0  0  0  0  0  0  0  0  0  0  0
    9.0533    0.5082    0.0000 C   0  0  0  0  0  0  0  0  0  0  0  0
    4.6603    1.3732    0.0000 H   0  0  0  0  0  0  0  0  0  0  0  0
    4.4882    0.6195    0.0000 H   0  0  0  0  0  0  0  0  0  0  0  0
    6.4817   -1.9343    0.0000 H   0  0  0  0  0  0  0  0  0  0  0  0
    3.2619   -0.2116    0.0000 H   0  0  0  0  0  0  0  0  0  0  0  0
    6.9393    2.2289    0.0000 H   0  0  0  0  0  0  0  0  0  0  0  0
    4.8267   -3.1136    0.0000 H   0  0  0  0  0  0  0  0  0  0  0  0
    7.6789   -1.4094    0.0000 H   0  0  0  0  0  0  0  0  0  0  0  0
    8.4153    1.8168    0.0000 H   0  0  0  0  0  0  0  0  0  0  0  0
    3.1675   -3.0782    0.0000 H   0  0  0  0  0  0  0  0  0  0  0  0
    9.2744   -0.9307    0.0000 H   0  0  0  0  0  0  0  0  0  0  0  0
    9.6451    0.6933    0.0000 H   0  0  0  0  0  0  0  0  0  0  0  0
  1 17  1  0  0  0  0
  2 12  2  0  0  0  0
  3  6  1  0  0  0  0
  3  9  1  0  0  0  0
  3 23  1  0  0  0  0
  4 11  1  0  0  0  0
  4 12  1  0  0  0  0
  4 25  1  0  0  0  0
  5  6  2  0  0  0  0
  5  7  1  0  0  0  0
  5  8  1  0  0  0  0
  6 10  1  0  0  0  0
  7  9  2  0  0  0  0
  7 13  1  0  0  0  0
  8 12  1  0  0  0  0
  8 21  1  0  0  0  0
  8 22  1  0  0  0  0
  9 14  1  0  0  0  0
 10 11  1  0  0  0  0
 10 15  2  0  0  0  0
 11 16  2  0  0  0  0
 13 17  2  0  0  0  0
 13 24  1  0  0  0  0
 14 18  2  0  0  0  0
 14 26  1  0  0  0  0
 15 19  1  0  0  0  0
 15 27  1  0  0  0  0
 16 20  1  0  0  0  0
 16 28  1  0  0  0  0
 17 18  1  0  0  0  0
 18 29  1  0  0  0  0
 19 20  2  0  0  0  0
 19 30  1  0  0  0  0
 20 31  1  0  0  0  0
M  END
> <PUBCHEM_COMPOUND_CID>
3820

> <PUBCHEM_COMPOUND_CANONICALIZED>
1

> <PUBCHEM_CACTVS_COMPLEXITY>
402

> <PUBCHEM_CACTVS_HBOND_ACCEPTOR>
1

> <PUBCHEM_CACTVS_HBOND_DONOR>
2

> <PUBCHEM_CACTVS_ROTATABLE_BOND>
0

> <PUBCHEM_CACTVS_SUBSKEYS>
AAADccB7IAAAEAAAAAAAAAAAAAAAAWAAAAAwYAAABYAAAFix9AAAHgBQAAABrAiBngAwwPLJkACoAyVyVACCgCAhAiQImSEwZLgIIPLA1ZGEIAhglADIyhccicCegAAgEAACAAAAAEAgAAQAAAAAAAAAAA==

> <PUBCHEM_IUPAC_OPENEYE_NAME>
9-bromo-7,12-dihydro-5H-indolo[3,2-d][1]benzazepin-6-one

> <PUBCHEM_IUPAC_CAS_NAME>
9-bromo-7,12-dihydro-5H-indolo[3,2-d][1]benzazepin-6-one

> <PUBCHEM_IUPAC_NAME>
9-bromo-7,12-dihydro-5H-indolo[3,2-d][1]benzazepin-6-one

> <PUBCHEM_IUPAC_SYSTEMATIC_NAME>
9-bromanyl-7,12-dihydro-5H-indolo[3,2-d][1]benzazepin-6-one

> <PUBCHEM_IUPAC_TRADITIONAL_NAME>
9-bromo-7,12-dihydro-5H-indolo[3,2-d][1]benzazepin-6-one

> <PUBCHEM_IUPAC_INCHI>
InChI=1S/C16H11BrN2O/c17-9-5-6-14-11(7-9)12-8-15(20)18-13-4-2-1-3-10(13)16(12)19-14/h1-7,19H,8H2,(H,18,20)

> <PUBCHEM_IUPAC_INCHIKEY>
QQUXFYAWXPMDOE-UHFFFAOYSA-N

> <PUBCHEM_XLOGP3_AA>
3.3

> <PUBCHEM_EXACT_MASS>
326.005475

> <PUBCHEM_MOLECULAR_FORMULA>
C16H11BrN2O

> <PUBCHEM_MOLECULAR_WEIGHT>
327.17534

> <PUBCHEM_OPENEYE_CAN_SMILES>
C1C2=C(C3=CC=CC=C3NC1=O)NC4=C2C=C(C=C4)Br

> <PUBCHEM_OPENEYE_ISO_SMILES>
C1C2=C(C3=CC=CC=C3NC1=O)NC4=C2C=C(C=C4)Br

> <PUBCHEM_CACTVS_TPSA>
44.9

> <PUBCHEM_MONOISOTOPIC_WEIGHT>
326.005475

> <PUBCHEM_TOTAL_CHARGE>
0

> <PUBCHEM_HEAVY_ATOM_COUNT>
20

> <PUBCHEM_ATOM_DEF_STEREO_COUNT>
0

> <PUBCHEM_ATOM_UDEF_STEREO_COUNT>
0

> <PUBCHEM_BOND_DEF_STEREO_COUNT>
0

> <PUBCHEM_BOND_UDEF_STEREO_COUNT>
0

> <PUBCHEM_ISOTOPIC_ATOM_COUNT>
0

> <PUBCHEM_COMPONENT_COUNT>
1

> <PUBCHEM_CACTVS_TAUTO_COUNT>
3

> <PUBCHEM_COORDINATE_TYPE>
1
5
255

> <PUBCHEM_BONDANNOTATIONS>
10  11  8
10  15  8
11  16  8
13  17  8
14  18  8
15  19  8
16  20  8
17  18  8
19  20  8
3  6  8
3  9  8
5  6  8
5  7  8
7  13  8
7  9  8
9  14  8

$$$$

