8967
  -OEChem-06261203172D

 88 91  0     1  0  0  0  0  0999 V2000
   14.7216    4.0976    0.0000 O   0  0  0  0  0  0  0  0  0  0  0  0
   17.3857    5.5734    0.0000 O   0  0  0  0  0  0  0  0  0  0  0  0
   13.6134   12.8493    0.0000 O   0  0  0  0  0  0  0  0  0  0  0  0
    3.0929    7.5986    0.0000 O   0  0  0  0  0  0  0  0  0  0  0  0
    0.5897    6.6507    0.0000 O   0  0  0  0  0  0  0  0  0  0  0  0
   11.1102   11.9014    0.0000 O   0  0  0  0  0  0  0  0  0  0  0  0
   10.6944   13.8577    0.0000 O   0  0  0  0  0  0  0  0  0  0  0  0
    0.1738    8.6070    0.0000 O   0  0  0  0  0  0  0  0  0  0  0  0
   12.5256   10.5015    0.0000 O   0  0  0  0  0  0  0  0  0  0  0  0
    2.0051    5.2507    0.0000 O   0  0  0  0  0  0  0  0  0  0  0  0
   14.7012   10.5015    0.0000 O   0  0  0  0  0  0  0  0  0  0  0  0
    4.1807    5.2507    0.0000 O   0  0  0  0  0  0  0  0  0  0  0  0
    4.8530    7.3198    0.0000 O   0  0  0  0  0  0  0  0  0  0  0  0
   15.3735   12.5706    0.0000 O   0  0  0  0  0  0  0  0  0  0  0  0
   12.2980    2.8819    0.0000 N   0  0  3  0  0  0  0  0  0  0  0  0
   13.8556    7.5976    0.0000 N   0  0  0  0  0  0  0  0  0  0  0  0
   11.4320    2.3819    0.0000 C   0  0  1  0  0  0  0  0  0  0  0  0
   12.9896    4.0976    0.0000 C   0  0  1  0  0  0  0  0  0  0  0  0
    9.5001    2.8995    0.0000 C   0  0  2  0  0  0  0  0  0  0  0  0
   12.0237    4.3564    0.0000 C   0  0  0  0  0  0  0  0  0  0  0  0
   12.1908    0.5499    0.0000 C   0  0  0  0  0  0  0  0  0  0  0  0
    9.7589    3.8655    0.0000 C   0  0  0  0  0  0  0  0  0  0  0  0
   13.0568    1.0500    0.0000 C   0  0  0  0  0  0  0  0  0  0  0  0
   13.8556    4.5976    0.0000 C   0  0  1  0  0  0  0  0  0  0  0  0
    8.6341    2.3995    0.0000 C   0  0  0  0  0  0  0  0  0  0  0  0
   13.8556    5.5976    0.0000 C   0  0  0  0  0  0  0  0  0  0  0  0
    7.7681    2.8995    0.0000 C   0  0  0  0  0  0  0  0  0  0  0  0
   14.7216    6.0976    0.0000 C   0  0  0  0  0  0  0  0  0  0  0  0
   12.9896    6.0976    0.0000 C   0  0  0  0  0  0  0  0  0  0  0  0
   14.7216    7.0976    0.0000 C   0  0  0  0  0  0  0  0  0  0  0  0
   15.6156    5.5629    0.0000 C   0  0  0  0  0  0  0  0  0  0  0  0
   12.9896    7.0976    0.0000 C   0  0  0  0  0  0  0  0  0  0  0  0
   15.6156    7.6322    0.0000 C   0  0  0  0  0  0  0  0  0  0  0  0
   16.5216    6.0768    0.0000 C   0  0  0  0  0  0  0  0  0  0  0  0
   16.5216    7.1184    0.0000 C   0  0  0  0  0  0  0  0  0  0  0  0
   18.2537    6.0701    0.0000 C   0  0  0  0  0  0  0  0  0  0  0  0
   12.8044   12.2616    0.0000 C   0  0  2  0  0  0  0  0  0  0  0  0
    2.2839    7.0108    0.0000 C   0  0  2  0  0  0  0  0  0  0  0  0
    1.3328    7.3198    0.0000 C   0  0  2  0  0  0  0  0  0  0  0  0
   11.8533   12.5706    0.0000 C   0  0  2  0  0  0  0  0  0  0  0  0
    2.5929    6.0598    0.0000 C   0  0  0  0  0  0  0  0  0  0  0  0
   13.1134   11.3105    0.0000 C   0  0  0  0  0  0  0  0  0  0  0  0
   11.6454   13.5487    0.0000 C   0  0  0  0  0  0  0  0  0  0  0  0
    1.1249    8.2980    0.0000 C   0  0  0  0  0  0  0  0  0  0  0  0
    3.5929    6.0598    0.0000 C   0  0  0  0  0  0  0  0  0  0  0  0
   14.1134   11.3105    0.0000 C   0  0  0  0  0  0  0  0  0  0  0  0
    3.9019    7.0108    0.0000 C   0  0  0  0  0  0  0  0  0  0  0  0
   14.4224   12.2616    0.0000 C   0  0  0  0  0  0  0  0  0  0  0  0
   10.6959    1.9569    0.0000 H   0  0  0  0  0  0  0  0  0  0  0  0
   13.5925    3.4984    0.0000 H   0  0  0  0  0  0  0  0  0  0  0  0
    9.5810    2.2848    0.0000 H   0  0  0  0  0  0  0  0  0  0  0  0
   12.1900    4.9537    0.0000 H   0  0  0  0  0  0  0  0  0  0  0  0
   11.4280    4.5286    0.0000 H   0  0  0  0  0  0  0  0  0  0  0  0
   11.6289    0.2879    0.0000 H   0  0  0  0  0  0  0  0  0  0  0  0
   12.4771    0.0000    0.0000 H   0  0  0  0  0  0  0  0  0  0  0  0
    9.9620    4.4513    0.0000 H   0  0  0  0  0  0  0  0  0  0  0  0
    9.1662    4.0473    0.0000 H   0  0  0  0  0  0  0  0  0  0  0  0
   13.3431    0.5000    0.0000 H   0  0  0  0  0  0  0  0  0  0  0  0
   13.6187    1.3120    0.0000 H   0  0  0  0  0  0  0  0  0  0  0  0
   14.3925    4.9076    0.0000 H   0  0  0  0  0  0  0  0  0  0  0  0
    8.6341    1.7795    0.0000 H   0  0  0  0  0  0  0  0  0  0  0  0
   14.7216    3.4776    0.0000 H   0  0  0  0  0  0  0  0  0  0  0  0
    7.7681    3.5195    0.0000 H   0  0  0  0  0  0  0  0  0  0  0  0
    7.2311    2.5895    0.0000 H   0  0  0  0  0  0  0  0  0  0  0  0
   12.4526    5.7876    0.0000 H   0  0  0  0  0  0  0  0  0  0  0  0
   15.6084    4.9430    0.0000 H   0  0  0  0  0  0  0  0  0  0  0  0
   12.4526    7.4076    0.0000 H   0  0  0  0  0  0  0  0  0  0  0  0
   15.6084    8.2522    0.0000 H   0  0  0  0  0  0  0  0  0  0  0  0
   17.0574    7.4305    0.0000 H   0  0  0  0  0  0  0  0  0  0  0  0
   18.5616    5.5320    0.0000 H   0  0  0  0  0  0  0  0  0  0  0  0
   18.7918    6.3780    0.0000 H   0  0  0  0  0  0  0  0  0  0  0  0
   17.9458    6.6082    0.0000 H   0  0  0  0  0  0  0  0  0  0  0  0
   12.6714   13.1011    0.0000 H   0  0  0  0  0  0  0  0  0  0  0  0
    2.1509    7.8504    0.0000 H   0  0  0  0  0  0  0  0  0  0  0  0
    1.4617    6.7134    0.0000 H   0  0  0  0  0  0  0  0  0  0  0  0
   11.9823   11.9641    0.0000 H   0  0  0  0  0  0  0  0  0  0  0  0
    1.7445    8.3196    0.0000 H   0  0  0  0  0  0  0  0  0  0  0  0
    1.2112    8.9119    0.0000 H   0  0  0  0  0  0  0  0  0  0  0  0
   12.2651   13.5704    0.0000 H   0  0  0  0  0  0  0  0  0  0  0  0
   11.7317   14.1627    0.0000 H   0  0  0  0  0  0  0  0  0  0  0  0
    0.0000    6.8423    0.0000 H   0  0  0  0  0  0  0  0  0  0  0  0
   10.5205   12.0930    0.0000 H   0  0  0  0  0  0  0  0  0  0  0  0
    0.0449    9.2134    0.0000 H   0  0  0  0  0  0  0  0  0  0  0  0
   10.5655   14.4642    0.0000 H   0  0  0  0  0  0  0  0  0  0  0  0
    4.7973    5.3156    0.0000 H   0  0  0  0  0  0  0  0  0  0  0  0
   15.3178   10.5663    0.0000 H   0  0  0  0  0  0  0  0  0  0  0  0
    4.9818    7.9263    0.0000 H   0  0  0  0  0  0  0  0  0  0  0  0
   15.5024   13.1770    0.0000 H   0  0  0  0  0  0  0  0  0  0  0  0
 24  1  1  1  0  0  0
  1 62  1  0  0  0  0
  2 34  1  0  0  0  0
  2 36  1  0  0  0  0
  3 37  1  0  0  0  0
  3 48  1  0  0  0  0
  4 38  1  0  0  0  0
  4 47  1  0  0  0  0
 39  5  1  1  0  0  0
  5 81  1  0  0  0  0
 40  6  1  1  0  0  0
  6 82  1  0  0  0  0
  7 43  1  0  0  0  0
  7 84  1  0  0  0  0
  8 44  1  0  0  0  0
  8 83  1  0  0  0  0
  9 42  2  0  0  0  0
 10 41  2  0  0  0  0
 11 46  1  0  0  0  0
 11 86  1  0  0  0  0
 12 45  1  0  0  0  0
 12 85  1  0  0  0  0
 13 47  1  0  0  0  0
 13 87  1  0  0  0  0
 14 48  1  0  0  0  0
 14 88  1  0  0  0  0
 15 18  1  0  0  0  0
 15 22  1  0  0  0  0
 15 23  1  0  0  0  0
 16 30  2  0  0  0  0
 16 32  1  0  0  0  0
 17 19  1  0  0  0  0
 17 20  1  0  0  0  0
 17 21  1  0  0  0  0
 17 49  1  6  0  0  0
 18 20  1  0  0  0  0
 18 24  1  0  0  0  0
 18 50  1  6  0  0  0
 19 22  1  0  0  0  0
 19 25  1  1  0  0  0
 19 51  1  0  0  0  0
 20 52  1  0  0  0  0
 20 53  1  0  0  0  0
 21 23  1  0  0  0  0
 21 54  1  0  0  0  0
 21 55  1  0  0  0  0
 22 56  1  0  0  0  0
 22 57  1  0  0  0  0
 23 58  1  0  0  0  0
 23 59  1  0  0  0  0
 24 26  1  0  0  0  0
 24 60  1  0  0  0  0
 25 27  2  0  0  0  0
 25 61  1  0  0  0  0
 26 28  2  0  0  0  0
 26 29  1  0  0  0  0
 27 63  1  0  0  0  0
 27 64  1  0  0  0  0
 28 30  1  0  0  0  0
 28 31  1  0  0  0  0
 29 32  2  0  0  0  0
 29 65  1  0  0  0  0
 30 33  1  0  0  0  0
 31 34  2  0  0  0  0
 31 66  1  0  0  0  0
 32 67  1  0  0  0  0
 33 35  2  0  0  0  0
 33 68  1  0  0  0  0
 34 35  1  0  0  0  0
 35 69  1  0  0  0  0
 36 70  1  0  0  0  0
 36 71  1  0  0  0  0
 36 72  1  0  0  0  0
 37 40  1  0  0  0  0
 37 42  1  0  0  0  0
 37 73  1  6  0  0  0
 38 39  1  0  0  0  0
 38 41  1  0  0  0  0
 38 74  1  6  0  0  0
 39 44  1  0  0  0  0
 39 75  1  0  0  0  0
 40 43  1  0  0  0  0
 40 76  1  0  0  0  0
 41 45  1  0  0  0  0
 42 46  1  0  0  0  0
 43 79  1  0  0  0  0
 43 80  1  0  0  0  0
 44 77  1  0  0  0  0
 44 78  1  0  0  0  0
 45 47  2  0  0  0  0
 46 48  2  0  0  0  0
M  END
> <PUBCHEM_COMPOUND_CID>
8967

> <PUBCHEM_COMPOUND_CANONICALIZED>
1

> <PUBCHEM_CACTVS_COMPLEXITY>
689

> <PUBCHEM_CACTVS_HBOND_ACCEPTOR>
16

> <PUBCHEM_CACTVS_HBOND_DONOR>
9

> <PUBCHEM_CACTVS_ROTATABLE_BOND>
8

> <PUBCHEM_CACTVS_SUBSKEYS>
AAADcfB/PAAAAAAAAAAAAAAAAAAAAQIAAAA8WLFiAAAAAACx8AAAHgAACAAADTzhngY+zvMIFgCoA7R3RAKCiCAxIiAI2CF+bNgfNvbEsZ+EcChl4BHf+Afy4PwOgEABAAACAAAAgAIAAAQAAAAAAAAAAA==

> <PUBCHEM_IUPAC_OPENEYE_NAME>
(2R)-2-[(1S)-1,2-dihydroxyethyl]-4,5-dihydroxy-furan-3-one; (R)-(6-methoxy-4-quinolyl)-[(2S,4R,5R)-5-vinylquinuclidin-2-yl]methanol

> <PUBCHEM_IUPAC_CAS_NAME>
(2R)-2-[(1S)-1,2-dihydroxyethyl]-4,5-dihydroxy-3-furanone; (R)-[(2S,4R,5R)-5-ethenyl-1-azabicyclo[2.2.2]octan-2-yl]-(6-methoxy-4-quinolinyl)methanol

> <PUBCHEM_IUPAC_NAME>
(2R)-2-[(1S)-1,2-dihydroxyethyl]-4,5-dihydroxyfuran-3-one; (R)-[(2S,4R,5R)-5-ethenyl-1-azabicyclo[2.2.2]octan-2-yl]-(6-methoxyquinolin-4-yl)methanol

> <PUBCHEM_IUPAC_SYSTEMATIC_NAME>
(2R)-2-[(1S)-1,2-bis(oxidanyl)ethyl]-4,5-bis(oxidanyl)furan-3-one; (R)-[(2S,4R,5R)-5-ethenyl-1-azabicyclo[2.2.2]octan-2-yl]-(6-methoxyquinolin-4-yl)methanol

> <PUBCHEM_IUPAC_TRADITIONAL_NAME>
(2R)-2-[(1S)-1,2-dihydroxyethyl]-4,5-dihydroxy-furan-3-one; (R)-(6-methoxy-4-quinolyl)-[(2S,4R,5R)-5-vinylquinuclidin-2-yl]methanol

> <PUBCHEM_IUPAC_INCHI>
InChI=1S/C20H24N2O2.2C6H8O6/c1-3-13-12-22-9-7-14(13)10-19(22)20(23)16-6-8-21-18-5-4-15(24-2)11-17(16)18;2*7-1-2(8)5-3(9)4(10)6(11)12-5/h3-6,8,11,13-14,19-20,23H,1,7,9-10,12H2,2H3;2*2,5,7-8,10-11H,1H2/t13-,14+,19-,20+;2*2-,5+/m000/s1

> <PUBCHEM_IUPAC_INCHIKEY>
HBGRTRHRYHQQQN-DGBKSHMMSA-N

> <PUBCHEM_EXACT_MASS>
676.247954

> <PUBCHEM_MOLECULAR_FORMULA>
C32H40N2O14

> <PUBCHEM_MOLECULAR_WEIGHT>
676.665

> <PUBCHEM_OPENEYE_CAN_SMILES>
COC1=CC2=C(C=CN=C2C=C1)C(C3CC4CCN3CC4C=C)O.C(C(C1C(=O)C(=C(O1)O)O)O)O.C(C(C1C(=O)C(=C(O1)O)O)O)O

> <PUBCHEM_OPENEYE_ISO_SMILES>
COC1=CC2=C(C=CN=C2C=C1)[C@H]([C@@H]3C[C@H]4CCN3C[C@@H]4C=C)O.C([C@@H]([C@@H]1C(=O)C(=C(O1)O)O)O)O.C([C@@H]([C@@H]1C(=O)C(=C(O1)O)O)O)O

> <PUBCHEM_CACTVS_TPSA>
260

> <PUBCHEM_MONOISOTOPIC_WEIGHT>
676.247954

> <PUBCHEM_TOTAL_CHARGE>
0

> <PUBCHEM_HEAVY_ATOM_COUNT>
48

> <PUBCHEM_ATOM_DEF_STEREO_COUNT>
8

> <PUBCHEM_ATOM_UDEF_STEREO_COUNT>
0

> <PUBCHEM_BOND_DEF_STEREO_COUNT>
0

> <PUBCHEM_BOND_UDEF_STEREO_COUNT>
0

> <PUBCHEM_ISOTOPIC_ATOM_COUNT>
0

> <PUBCHEM_COMPONENT_COUNT>
3

> <PUBCHEM_CACTVS_TAUTO_COUNT>
36

> <PUBCHEM_COORDINATE_TYPE>
1
5
255

> <PUBCHEM_BONDANNOTATIONS>
24  1  5
16  30  8
16  32  8
17  49  6
18  50  6
19  25  5
26  28  8
26  29  8
28  30  8
28  31  8
29  32  8
30  33  8
31  34  8
33  35  8
34  35  8
37  73  6
38  74  6
39  5  5
40  6  5

$$$$

