17396097
  -OEChem-06241222542D

 66 70  0     1  0  0  0  0  0999 V2000
    6.8547   -1.9362    0.0000 S   0  0  0  0  0  0  0  0  0  0  0  0
   10.3073    1.0772    0.0000 O   0  0  0  0  0  0  0  0  0  0  0  0
    7.3581   -2.8003    0.0000 O   0  0  0  0  0  0  0  0  0  0  0  0
    6.3514   -1.0721    0.0000 O   0  0  0  0  0  0  0  0  0  0  0  0
    3.4088   -1.8368    0.0000 O   0  0  0  0  0  0  0  0  0  0  0  0
    3.4088   -4.0838    0.0000 O   0  0  0  0  0  0  0  0  0  0  0  0
   11.1791   -0.4195    0.0000 N   0  0  0  0  0  0  0  0  0  0  0  0
    7.7188   -1.4328    0.0000 N   0  0  0  0  0  0  0  0  0  0  0  0
   12.9111   -0.4128    0.0000 C   0  0  0  0  0  0  0  0  0  0  0  0
   13.4144   -1.2769    0.0000 C   0  0  0  0  0  0  0  0  0  0  0  0
   13.9111   -0.4090    0.0000 C   0  0  0  0  0  0  0  0  0  0  0  0
   12.0431    0.0838    0.0000 C   0  0  3  0  0  0  0  0  0  0  0  0
   12.0393    1.0838    0.0000 C   0  0  0  0  0  0  0  0  0  0  0  0
    9.4470   -0.4262    0.0000 C   0  0  0  0  0  0  0  0  0  0  0  0
   10.3111    0.0772    0.0000 C   0  0  0  0  0  0  0  0  0  0  0  0
    9.4509   -1.4262    0.0000 C   0  0  0  0  0  0  0  0  0  0  0  0
    8.5791    0.0705    0.0000 C   0  0  0  0  0  0  0  0  0  0  0  0
    8.5868   -1.9295    0.0000 C   0  0  0  0  0  0  0  0  0  0  0  0
    7.7150   -0.4328    0.0000 C   0  0  0  0  0  0  0  0  0  0  0  0
   12.9034    1.5872    0.0000 C   0  0  0  0  0  0  0  0  0  0  0  0
   11.1713    1.5805    0.0000 C   0  0  0  0  0  0  0  0  0  0  0  0
   12.8995    2.5872    0.0000 C   0  0  0  0  0  0  0  0  0  0  0  0
   11.1675    2.5805    0.0000 C   0  0  0  0  0  0  0  0  0  0  0  0
   12.0316    3.0838    0.0000 C   0  0  0  0  0  0  0  0  0  0  0  0
    5.9906   -2.4395    0.0000 C   0  0  0  0  0  0  0  0  0  0  0  0
    5.0846   -1.9257    0.0000 C   0  0  0  0  0  0  0  0  0  0  0  0
    5.9906   -3.4811    0.0000 C   0  0  0  0  0  0  0  0  0  0  0  0
   12.0277    4.0838    0.0000 C   0  0  0  0  0  0  0  0  0  0  0  0
    4.1906   -2.4603    0.0000 C   0  0  0  0  0  0  0  0  0  0  0  0
    5.0846   -3.9950    0.0000 C   0  0  0  0  0  0  0  0  0  0  0  0
    4.1906   -3.4603    0.0000 C   0  0  0  0  0  0  0  0  0  0  0  0
    2.4339   -2.0593    0.0000 C   0  0  0  0  0  0  0  0  0  0  0  0
    2.0000   -2.9603    0.0000 C   0  0  0  0  0  0  0  0  0  0  0  0
    2.4339   -3.8613    0.0000 C   0  0  0  0  0  0  0  0  0  0  0  0
   13.0693    0.1867    0.0000 H   0  0  0  0  0  0  0  0  0  0  0  0
   12.9410   -1.6773    0.0000 H   0  0  0  0  0  0  0  0  0  0  0  0
   13.8909   -1.6736    0.0000 H   0  0  0  0  0  0  0  0  0  0  0  0
   14.4945   -0.6188    0.0000 H   0  0  0  0  0  0  0  0  0  0  0  0
   14.0164    0.2020    0.0000 H   0  0  0  0  0  0  0  0  0  0  0  0
   11.5050    0.3918    0.0000 H   0  0  0  0  0  0  0  0  0  0  0  0
   11.1814   -1.0395    0.0000 H   0  0  0  0  0  0  0  0  0  0  0  0
    9.4446    0.1938    0.0000 H   0  0  0  0  0  0  0  0  0  0  0  0
    8.9758    0.5470    0.0000 H   0  0  0  0  0  0  0  0  0  0  0  0
    8.1787    0.5439    0.0000 H   0  0  0  0  0  0  0  0  0  0  0  0
    9.6652   -2.0080    0.0000 H   0  0  0  0  0  0  0  0  0  0  0  0
   10.0610   -1.3162    0.0000 H   0  0  0  0  0  0  0  0  0  0  0  0
    7.5007    0.1489    0.0000 H   0  0  0  0  0  0  0  0  0  0  0  0
    7.1048   -0.5429    0.0000 H   0  0  0  0  0  0  0  0  0  0  0  0
    8.1901   -2.4060    0.0000 H   0  0  0  0  0  0  0  0  0  0  0  0
    8.9871   -2.4029    0.0000 H   0  0  0  0  0  0  0  0  0  0  0  0
   13.4415    1.2792    0.0000 H   0  0  0  0  0  0  0  0  0  0  0  0
   10.6356    1.2684    0.0000 H   0  0  0  0  0  0  0  0  0  0  0  0
   13.4353    2.8992    0.0000 H   0  0  0  0  0  0  0  0  0  0  0  0
   10.6294    2.8884    0.0000 H   0  0  0  0  0  0  0  0  0  0  0  0
    5.0774   -1.3057    0.0000 H   0  0  0  0  0  0  0  0  0  0  0  0
    6.5264   -3.7932    0.0000 H   0  0  0  0  0  0  0  0  0  0  0  0
   12.6477    4.0862    0.0000 H   0  0  0  0  0  0  0  0  0  0  0  0
   12.0253    4.7038    0.0000 H   0  0  0  0  0  0  0  0  0  0  0  0
   11.4077    4.0814    0.0000 H   0  0  0  0  0  0  0  0  0  0  0  0
    5.0774   -4.6149    0.0000 H   0  0  0  0  0  0  0  0  0  0  0  0
    2.4339   -1.4393    0.0000 H   0  0  0  0  0  0  0  0  0  0  0  0
    1.8294   -1.9214    0.0000 H   0  0  0  0  0  0  0  0  0  0  0  0
    1.5153   -2.5738    0.0000 H   0  0  0  0  0  0  0  0  0  0  0  0
    1.5153   -3.3469    0.0000 H   0  0  0  0  0  0  0  0  0  0  0  0
    1.8294   -3.9992    0.0000 H   0  0  0  0  0  0  0  0  0  0  0  0
    2.4339   -4.4813    0.0000 H   0  0  0  0  0  0  0  0  0  0  0  0
  1  3  2  0  0  0  0
  1  4  2  0  0  0  0
  1  8  1  0  0  0  0
  1 25  1  0  0  0  0
  2 15  2  0  0  0  0
  5 29  1  0  0  0  0
  5 32  1  0  0  0  0
  6 31  1  0  0  0  0
  6 34  1  0  0  0  0
  7 12  1  0  0  0  0
  7 15  1  0  0  0  0
  7 41  1  0  0  0  0
  8 18  1  0  0  0  0
  8 19  1  0  0  0  0
  9 10  1  0  0  0  0
  9 11  1  0  0  0  0
  9 12  1  0  0  0  0
  9 35  1  0  0  0  0
 10 11  1  0  0  0  0
 10 36  1  0  0  0  0
 10 37  1  0  0  0  0
 11 38  1  0  0  0  0
 11 39  1  0  0  0  0
 12 13  1  0  0  0  0
 12 40  1  0  0  0  0
 13 20  2  0  0  0  0
 13 21  1  0  0  0  0
 14 15  1  0  0  0  0
 14 16  1  0  0  0  0
 14 17  1  0  0  0  0
 14 42  1  0  0  0  0
 16 18  1  0  0  0  0
 16 45  1  0  0  0  0
 16 46  1  0  0  0  0
 17 19  1  0  0  0  0
 17 43  1  0  0  0  0
 17 44  1  0  0  0  0
 18 49  1  0  0  0  0
 18 50  1  0  0  0  0
 19 47  1  0  0  0  0
 19 48  1  0  0  0  0
 20 22  1  0  0  0  0
 20 51  1  0  0  0  0
 21 23  2  0  0  0  0
 21 52  1  0  0  0  0
 22 24  2  0  0  0  0
 22 53  1  0  0  0  0
 23 24  1  0  0  0  0
 23 54  1  0  0  0  0
 24 28  1  0  0  0  0
 25 26  2  0  0  0  0
 25 27  1  0  0  0  0
 26 29  1  0  0  0  0
 26 55  1  0  0  0  0
 27 30  2  0  0  0  0
 27 56  1  0  0  0  0
 28 57  1  0  0  0  0
 28 58  1  0  0  0  0
 28 59  1  0  0  0  0
 29 31  2  0  0  0  0
 30 31  1  0  0  0  0
 30 60  1  0  0  0  0
 32 33  1  0  0  0  0
 32 61  1  0  0  0  0
 32 62  1  0  0  0  0
 33 34  1  0  0  0  0
 33 63  1  0  0  0  0
 33 64  1  0  0  0  0
 34 65  1  0  0  0  0
 34 66  1  0  0  0  0
M  END
> <PUBCHEM_COMPOUND_CID>
17396097

> <PUBCHEM_COMPOUND_CANONICALIZED>
1

> <PUBCHEM_CACTVS_COMPLEXITY>
795

> <PUBCHEM_CACTVS_HBOND_ACCEPTOR>
6

> <PUBCHEM_CACTVS_HBOND_DONOR>
1

> <PUBCHEM_CACTVS_ROTATABLE_BOND>
6

> <PUBCHEM_CACTVS_SUBSKEYS>
AAADcfB7OABAAAAAAAAAAAAAGAAAAAAAAAA8YIAABIAAAAABQAAAHgQQQAAADSzh2AYyB4LABAKIAiFSEHDCCBAgIAAIiJkOjIgNJjKEsRuGOCrl1hGKqAeUwMAOQIAABAAAQACBAAAIAACAAAAAAAAAAA==

> <PUBCHEM_IUPAC_OPENEYE_NAME>
N-[cyclopropyl(p-tolyl)methyl]-1-(3,4-dihydro-2H-1,5-benzodioxepin-7-ylsulfonyl)piperidine-4-carboxamide

> <PUBCHEM_IUPAC_CAS_NAME>
N-[cyclopropyl-(4-methylphenyl)methyl]-1-(3,4-dihydro-2H-1,5-benzodioxepin-7-ylsulfonyl)-4-piperidinecarboxamide

> <PUBCHEM_IUPAC_NAME>
N-[cyclopropyl-(4-methylphenyl)methyl]-1-(3,4-dihydro-2H-1,5-benzodioxepin-7-ylsulfonyl)piperidine-4-carboxamide

> <PUBCHEM_IUPAC_SYSTEMATIC_NAME>
N-[cyclopropyl-(4-methylphenyl)methyl]-1-(3,4-dihydro-2H-1,5-benzodioxepin-7-ylsulfonyl)piperidine-4-carboxamide

> <PUBCHEM_IUPAC_TRADITIONAL_NAME>
N-[cyclopropyl(p-tolyl)methyl]-1-(3,4-dihydro-2H-1,5-benzodioxepin-7-ylsulfonyl)isonipecotamide

> <PUBCHEM_IUPAC_INCHI>
InChI=1S/C26H32N2O5S/c1-18-3-5-19(6-4-18)25(20-7-8-20)27-26(29)21-11-13-28(14-12-21)34(30,31)22-9-10-23-24(17-22)33-16-2-15-32-23/h3-6,9-10,17,20-21,25H,2,7-8,11-16H2,1H3,(H,27,29)

> <PUBCHEM_IUPAC_INCHIKEY>
USPBONSXGBNEFQ-UHFFFAOYSA-N

> <PUBCHEM_XLOGP3_AA>
3.6

> <PUBCHEM_EXACT_MASS>
484.203193

> <PUBCHEM_MOLECULAR_FORMULA>
C26H32N2O5S

> <PUBCHEM_MOLECULAR_WEIGHT>
484.60768

> <PUBCHEM_OPENEYE_CAN_SMILES>
CC1=CC=C(C=C1)C(C2CC2)NC(=O)C3CCN(CC3)S(=O)(=O)C4=CC5=C(C=C4)OCCCO5

> <PUBCHEM_OPENEYE_ISO_SMILES>
CC1=CC=C(C=C1)C(C2CC2)NC(=O)C3CCN(CC3)S(=O)(=O)C4=CC5=C(C=C4)OCCCO5

> <PUBCHEM_CACTVS_TPSA>
93.3

> <PUBCHEM_MONOISOTOPIC_WEIGHT>
484.203193

> <PUBCHEM_TOTAL_CHARGE>
0

> <PUBCHEM_HEAVY_ATOM_COUNT>
34

> <PUBCHEM_ATOM_DEF_STEREO_COUNT>
0

> <PUBCHEM_ATOM_UDEF_STEREO_COUNT>
1

> <PUBCHEM_BOND_DEF_STEREO_COUNT>
0

> <PUBCHEM_BOND_UDEF_STEREO_COUNT>
0

> <PUBCHEM_ISOTOPIC_ATOM_COUNT>
0

> <PUBCHEM_COMPONENT_COUNT>
1

> <PUBCHEM_CACTVS_TAUTO_COUNT>
2

> <PUBCHEM_COORDINATE_TYPE>
1
5
255

> <PUBCHEM_BONDANNOTATIONS>
13  20  8
13  21  8
20  22  8
21  23  8
22  24  8
23  24  8
25  26  8
25  27  8
26  29  8
27  30  8
29  31  8
30  31  8
12  7  3

$$$$

