17396422
  -OEChem-06241222562D

 34 37  0     0  0  0  0  0  0999 V2000
    2.1340    0.8636    0.0000 O   0  0  0  0  0  0  0  0  0  0  0  0
    3.5000   -2.1662    0.0000 N   0  0  0  0  0  0  0  0  0  0  0  0
    3.8660    0.8636    0.0000 N   0  0  0  0  0  0  0  0  0  0  0  0
    2.1953   -1.2200    0.0000 N   0  0  0  0  0  0  0  0  0  0  0  0
    5.6260    1.8290    0.0000 N   0  0  0  0  0  0  0  0  0  0  0  0
    3.8660    1.8636    0.0000 C   0  0  0  0  0  0  0  0  0  0  0  0
    2.5000   -2.1662    0.0000 C   0  0  0  0  0  0  0  0  0  0  0  0
    3.0000   -0.6364    0.0000 C   0  0  0  0  0  0  0  0  0  0  0  0
    4.7320    2.3636    0.0000 C   0  0  0  0  0  0  0  0  0  0  0  0
    3.8047   -1.2200    0.0000 C   0  0  0  0  0  0  0  0  0  0  0  0
    4.7320    3.3636    0.0000 C   0  0  0  0  0  0  0  0  0  0  0  0
    3.0000    0.3636    0.0000 C   0  0  0  0  0  0  0  0  0  0  0  0
    4.0000   -3.0322    0.0000 C   0  0  0  0  0  0  0  0  0  0  0  0
    3.0000    2.3636    0.0000 C   0  0  0  0  0  0  0  0  0  0  0  0
    2.0000   -3.0322    0.0000 C   0  0  0  0  0  0  0  0  0  0  0  0
    3.8660    3.8636    0.0000 C   0  0  0  0  0  0  0  0  0  0  0  0
    3.0000    3.3636    0.0000 C   0  0  0  0  0  0  0  0  0  0  0  0
    5.6260    3.8983    0.0000 C   0  0  0  0  0  0  0  0  0  0  0  0
    3.5000   -3.8983    0.0000 C   0  0  0  0  0  0  0  0  0  0  0  0
    2.5000   -3.8983    0.0000 C   0  0  0  0  0  0  0  0  0  0  0  0
    6.5321    3.3844    0.0000 C   0  0  0  0  0  0  0  0  0  0  0  0
    6.5321    2.3428    0.0000 C   0  0  0  0  0  0  0  0  0  0  0  0
    4.3940   -1.0274    0.0000 H   0  0  0  0  0  0  0  0  0  0  0  0
    4.4030    0.5536    0.0000 H   0  0  0  0  0  0  0  0  0  0  0  0
    4.6200   -3.0322    0.0000 H   0  0  0  0  0  0  0  0  0  0  0  0
    2.4631    2.0536    0.0000 H   0  0  0  0  0  0  0  0  0  0  0  0
    1.3800   -3.0322    0.0000 H   0  0  0  0  0  0  0  0  0  0  0  0
    3.8660    4.4836    0.0000 H   0  0  0  0  0  0  0  0  0  0  0  0
    2.4631    3.6736    0.0000 H   0  0  0  0  0  0  0  0  0  0  0  0
    5.6188    4.5182    0.0000 H   0  0  0  0  0  0  0  0  0  0  0  0
    3.8100   -4.4352    0.0000 H   0  0  0  0  0  0  0  0  0  0  0  0
    2.1900   -4.4352    0.0000 H   0  0  0  0  0  0  0  0  0  0  0  0
    7.0678    3.6965    0.0000 H   0  0  0  0  0  0  0  0  0  0  0  0
    7.0678    2.0307    0.0000 H   0  0  0  0  0  0  0  0  0  0  0  0
  1 12  2  0  0  0  0
  2  7  1  0  0  0  0
  2 10  1  0  0  0  0
  2 13  1  0  0  0  0
  3  6  1  0  0  0  0
  3 12  1  0  0  0  0
  3 24  1  0  0  0  0
  4  7  2  0  0  0  0
  4  8  1  0  0  0  0
  5  9  1  0  0  0  0
  5 22  2  0  0  0  0
  6  9  1  0  0  0  0
  6 14  2  0  0  0  0
  7 15  1  0  0  0  0
  8 10  2  0  0  0  0
  8 12  1  0  0  0  0
  9 11  2  0  0  0  0
 10 23  1  0  0  0  0
 11 16  1  0  0  0  0
 11 18  1  0  0  0  0
 13 19  2  0  0  0  0
 13 25  1  0  0  0  0
 14 17  1  0  0  0  0
 14 26  1  0  0  0  0
 15 20  2  0  0  0  0
 15 27  1  0  0  0  0
 16 17  2  0  0  0  0
 16 28  1  0  0  0  0
 17 29  1  0  0  0  0
 18 21  2  0  0  0  0
 18 30  1  0  0  0  0
 19 20  1  0  0  0  0
 19 31  1  0  0  0  0
 20 32  1  0  0  0  0
 21 22  1  0  0  0  0
 21 33  1  0  0  0  0
 22 34  1  0  0  0  0
M  END
> <PUBCHEM_COMPOUND_CID>
17396422

> <PUBCHEM_COMPOUND_CANONICALIZED>
1

> <PUBCHEM_CACTVS_COMPLEXITY>
416

> <PUBCHEM_CACTVS_HBOND_ACCEPTOR>
3

> <PUBCHEM_CACTVS_HBOND_DONOR>
1

> <PUBCHEM_CACTVS_ROTATABLE_BOND>
2

> <PUBCHEM_CACTVS_SUBSKEYS>
AAADccB7oAAAAAAAAAAAAAAAAAAAAWAAAAA8WIAAAAAAAFix/gAAHgAQAAAADAjBnwQ98P/MGACoAzd3dACCgC03EqAJ2CG4dNiIaOrA2bGUIIholALIyOcQgIAOAAAAQAACACAAAACAAAQAQAAAAAAAAA==

> <PUBCHEM_IUPAC_OPENEYE_NAME>
N-(8-quinolyl)imidazo[1,2-a]pyridine-2-carboxamide

> <PUBCHEM_IUPAC_CAS_NAME>
N-(8-quinolinyl)-2-imidazo[1,2-a]pyridinecarboxamide

> <PUBCHEM_IUPAC_NAME>
N-quinolin-8-ylimidazo[1,2-a]pyridine-2-carboxamide

> <PUBCHEM_IUPAC_SYSTEMATIC_NAME>
N-quinolin-8-ylimidazo[1,2-a]pyridine-2-carboxamide

> <PUBCHEM_IUPAC_TRADITIONAL_NAME>
N-(8-quinolyl)imidazo[1,2-a]pyridine-2-carboxamide

> <PUBCHEM_IUPAC_INCHI>
InChI=1S/C17H12N4O/c22-17(14-11-21-10-2-1-8-15(21)19-14)20-13-7-3-5-12-6-4-9-18-16(12)13/h1-11H,(H,20,22)

> <PUBCHEM_IUPAC_INCHIKEY>
YLFWCIJOHZFEDS-UHFFFAOYSA-N

> <PUBCHEM_XLOGP3_AA>
3.2

> <PUBCHEM_EXACT_MASS>
288.101111

> <PUBCHEM_MOLECULAR_FORMULA>
C17H12N4O

> <PUBCHEM_MOLECULAR_WEIGHT>
288.30338

> <PUBCHEM_OPENEYE_CAN_SMILES>
C1=CC2=NC(=CN2C=C1)C(=O)NC3=CC=CC4=C3N=CC=C4

> <PUBCHEM_OPENEYE_ISO_SMILES>
C1=CC2=NC(=CN2C=C1)C(=O)NC3=CC=CC4=C3N=CC=C4

> <PUBCHEM_CACTVS_TPSA>
59.3

> <PUBCHEM_MONOISOTOPIC_WEIGHT>
288.101111

> <PUBCHEM_TOTAL_CHARGE>
0

> <PUBCHEM_HEAVY_ATOM_COUNT>
22

> <PUBCHEM_ATOM_DEF_STEREO_COUNT>
0

> <PUBCHEM_ATOM_UDEF_STEREO_COUNT>
0

> <PUBCHEM_BOND_DEF_STEREO_COUNT>
0

> <PUBCHEM_BOND_UDEF_STEREO_COUNT>
0

> <PUBCHEM_ISOTOPIC_ATOM_COUNT>
0

> <PUBCHEM_COMPONENT_COUNT>
1

> <PUBCHEM_CACTVS_TAUTO_COUNT>
2

> <PUBCHEM_COORDINATE_TYPE>
1
5
255

> <PUBCHEM_BONDANNOTATIONS>
11  16  8
11  18  8
13  19  8
14  17  8
15  20  8
16  17  8
18  21  8
19  20  8
2  10  8
2  13  8
2  7  8
21  22  8
4  7  8
4  8  8
5  22  8
5  9  8
6  14  8
6  9  8
7  15  8
8  10  8
9  11  8

$$$$

