4019
  -OEChem-06251223492D

 54 57  0     1  0  0  0  0  0999 V2000
    3.4782   -2.7188    0.0000 S   0  0  0  0  0  0  0  0  0  0  0  0
    4.3554    0.5553    0.0000 S   0  0  0  0  0  0  0  0  0  0  0  0
    6.1808   -1.2243    0.0000 O   0  0  0  0  0  0  0  0  0  0  0  0
    5.3147    0.2757    0.0000 O   0  0  0  0  0  0  0  0  0  0  0  0
    4.9487   -2.0903    0.0000 O   0  0  0  0  0  0  0  0  0  0  0  0
    9.0177    2.0607    0.0000 N   0  0  3  0  0  0  0  0  0  0  0  0
    9.4955    0.1121    0.0000 C   0  0  3  0  0  0  0  0  0  0  0  0
   11.2002   -0.9325    0.0000 C   0  0  0  0  0  0  0  0  0  0  0  0
    9.7543    1.0781    0.0000 C   0  0  3  0  0  0  0  0  0  0  0  0
   11.9773   -0.3032    0.0000 C   0  0  0  0  0  0  0  0  0  0  0  0
    7.9603   -1.1310    0.0000 C   0  0  0  0  0  0  0  0  0  0  0  0
   11.6190    0.6304    0.0000 C   0  0  0  0  0  0  0  0  0  0  0  0
    7.1513    0.2703    0.0000 C   0  0  0  0  0  0  0  0  0  0  0  0
    7.0468   -0.7243    0.0000 C   0  0  3  0  0  0  0  0  0  0  0  0
   10.7462   -1.8235    0.0000 C   0  0  0  0  0  0  0  0  0  0  0  0
   11.7448   -1.7712    0.0000 C   0  0  0  0  0  0  0  0  0  0  0  0
    8.5177    2.9267    0.0000 C   0  0  0  0  0  0  0  0  0  0  0  0
    5.3147   -0.7243    0.0000 C   0  0  0  0  0  0  0  0  0  0  0  0
    4.4487   -1.2243    0.0000 C   0  0  0  0  0  0  0  0  0  0  0  0
    3.5827   -1.7243    0.0000 C   0  0  0  0  0  0  0  0  0  0  0  0
    3.9487   -0.3582    0.0000 C   0  0  0  0  0  0  0  0  0  0  0  0
    2.6691   -1.3175    0.0000 C   0  0  0  0  0  0  0  0  0  0  0  0
    2.9542   -0.2537    0.0000 C   0  0  0  0  0  0  0  0  0  0  0  0
    2.0000   -2.0607    0.0000 C   0  0  0  0  0  0  0  0  0  0  0  0
    2.7463    0.7244    0.0000 C   0  0  0  0  0  0  0  0  0  0  0  0
    2.5000   -2.9267    0.0000 C   0  0  0  0  0  0  0  0  0  0  0  0
    3.6123    1.2244    0.0000 C   0  0  0  0  0  0  0  0  0  0  0  0
   10.1819    0.6134    0.0000 H   0  0  0  0  0  0  0  0  0  0  0  0
   10.2212    1.7883    0.0000 H   0  0  0  0  0  0  0  0  0  0  0  0
   12.3150   -0.8232    0.0000 H   0  0  0  0  0  0  0  0  0  0  0  0
   12.5297   -0.0217    0.0000 H   0  0  0  0  0  0  0  0  0  0  0  0
    7.6226   -1.6510    0.0000 H   0  0  0  0  0  0  0  0  0  0  0  0
    8.4211   -1.5459    0.0000 H   0  0  0  0  0  0  0  0  0  0  0  0
   12.2304    0.7327    0.0000 H   0  0  0  0  0  0  0  0  0  0  0  0
   11.6406    1.2500    0.0000 H   0  0  0  0  0  0  0  0  0  0  0  0
    7.0490    0.8818    0.0000 H   0  0  0  0  0  0  0  0  0  0  0  0
    6.5316    0.2514    0.0000 H   0  0  0  0  0  0  0  0  0  0  0  0
    7.0913   -1.5731    0.0000 H   0  0  0  0  0  0  0  0  0  0  0  0
   10.1938   -1.5420    0.0000 H   0  0  0  0  0  0  0  0  0  0  0  0
   10.4647   -2.3759    0.0000 H   0  0  0  0  0  0  0  0  0  0  0  0
   11.2986   -2.1050    0.0000 H   0  0  0  0  0  0  0  0  0  0  0  0
   11.2248   -2.1088    0.0000 H   0  0  0  0  0  0  0  0  0  0  0  0
   12.0825   -2.2912    0.0000 H   0  0  0  0  0  0  0  0  0  0  0  0
   12.2648   -1.4335    0.0000 H   0  0  0  0  0  0  0  0  0  0  0  0
    9.0546    3.2367    0.0000 H   0  0  0  0  0  0  0  0  0  0  0  0
    8.2077    3.4636    0.0000 H   0  0  0  0  0  0  0  0  0  0  0  0
    7.9808    2.6167    0.0000 H   0  0  0  0  0  0  0  0  0  0  0  0
    4.6387   -2.6272    0.0000 H   0  0  0  0  0  0  0  0  0  0  0  0
    2.5402   -0.7111    0.0000 H   0  0  0  0  0  0  0  0  0  0  0  0
    2.5393   -0.7145    0.0000 H   0  0  0  0  0  0  0  0  0  0  0  0
    1.3834   -1.9959    0.0000 H   0  0  0  0  0  0  0  0  0  0  0  0
    2.1799    0.9766    0.0000 H   0  0  0  0  0  0  0  0  0  0  0  0
    2.2478   -3.4931    0.0000 H   0  0  0  0  0  0  0  0  0  0  0  0
    3.6771    1.8410    0.0000 H   0  0  0  0  0  0  0  0  0  0  0  0
  1 20  1  0  0  0  0
  1 26  1  0  0  0  0
  2 21  1  0  0  0  0
  2 27  1  0  0  0  0
  3 14  1  0  0  0  0
  3 18  1  0  0  0  0
  4 18  2  0  0  0  0
  5 19  1  0  0  0  0
  5 48  1  0  0  0  0
  6  7  1  0  0  0  0
  6  9  1  0  0  0  0
  6 17  1  0  0  0  0
  7  8  1  0  0  0  0
  7 11  1  0  0  0  0
  7 28  1  0  0  0  0
  8 10  1  0  0  0  0
  8 15  1  0  0  0  0
  8 16  1  0  0  0  0
  9 12  1  0  0  0  0
  9 13  1  0  0  0  0
  9 29  1  0  0  0  0
 10 12  1  0  0  0  0
 10 30  1  0  0  0  0
 10 31  1  0  0  0  0
 11 14  1  0  0  0  0
 11 32  1  0  0  0  0
 11 33  1  0  0  0  0
 12 34  1  0  0  0  0
 12 35  1  0  0  0  0
 13 14  1  0  0  0  0
 13 36  1  0  0  0  0
 13 37  1  0  0  0  0
 14 38  1  0  0  0  0
 15 39  1  0  0  0  0
 15 40  1  0  0  0  0
 15 41  1  0  0  0  0
 16 42  1  0  0  0  0
 16 43  1  0  0  0  0
 16 44  1  0  0  0  0
 17 45  1  0  0  0  0
 17 46  1  0  0  0  0
 17 47  1  0  0  0  0
 18 19  1  0  0  0  0
 19 20  1  0  0  0  0
 19 21  1  0  0  0  0
 20 22  2  0  0  0  0
 21 23  2  0  0  0  0
 22 24  1  0  0  0  0
 22 49  1  0  0  0  0
 23 25  1  0  0  0  0
 23 50  1  0  0  0  0
 24 26  2  0  0  0  0
 24 51  1  0  0  0  0
 25 27  2  0  0  0  0
 25 52  1  0  0  0  0
 26 53  1  0  0  0  0
 27 54  1  0  0  0  0
M  END
> <PUBCHEM_COMPOUND_CID>
4019

> <PUBCHEM_COMPOUND_CANONICALIZED>
1

> <PUBCHEM_CACTVS_COMPLEXITY>
554

> <PUBCHEM_CACTVS_HBOND_ACCEPTOR>
6

> <PUBCHEM_CACTVS_HBOND_DONOR>
1

> <PUBCHEM_CACTVS_ROTATABLE_BOND>
5

> <PUBCHEM_CACTVS_SUBSKEYS>
AAADceB6MABgAAAAAAAAAAAAAAAAASJAAAAsWAAAAAAYAAAB4AAAHgQACAAADnzl0AayCYMABgiMACDSCAIDAIAgCBBIiBlICIgJJjKglRCGcAAmwAGrmAeYyOAPAAAAAAAAAAAAAAAAAAAAAAAAAAAAAA==

> <PUBCHEM_IUPAC_OPENEYE_NAME>
(6,6,9-trimethyl-9-azabicyclo[3.3.1]nonan-3-yl) 2-hydroxy-2,2-bis(2-thienyl)acetate

> <PUBCHEM_IUPAC_CAS_NAME>
2-hydroxy-2,2-dithiophen-2-ylacetic acid (6,6,9-trimethyl-9-azabicyclo[3.3.1]nonan-3-yl) ester

> <PUBCHEM_IUPAC_NAME>
(6,6,9-trimethyl-9-azabicyclo[3.3.1]nonan-3-yl) 2-hydroxy-2,2-dithiophen-2-ylacetate

> <PUBCHEM_IUPAC_SYSTEMATIC_NAME>
(6,6,9-trimethyl-9-azabicyclo[3.3.1]nonan-3-yl) 2-oxidanyl-2,2-dithiophen-2-yl-ethanoate

> <PUBCHEM_IUPAC_TRADITIONAL_NAME>
2-hydroxy-2,2-bis(2-thienyl)acetic acid (6,6,9-trimethyl-9-azabicyclo[3.3.1]nonan-3-yl) ester

> <PUBCHEM_IUPAC_INCHI>
InChI=1S/C21H27NO3S2/c1-20(2)9-8-14-12-15(13-16(20)22(14)3)25-19(23)21(24,17-6-4-10-26-17)18-7-5-11-27-18/h4-7,10-11,14-16,24H,8-9,12-13H2,1-3H3

> <PUBCHEM_IUPAC_INCHIKEY>
AMHPTVWBZSYFSS-UHFFFAOYSA-N

> <PUBCHEM_XLOGP3_AA>
4.5

> <PUBCHEM_EXACT_MASS>
405.143236

> <PUBCHEM_MOLECULAR_FORMULA>
C21H27NO3S2

> <PUBCHEM_MOLECULAR_WEIGHT>
405.57398

> <PUBCHEM_OPENEYE_CAN_SMILES>
CC1(CCC2CC(CC1N2C)OC(=O)C(C3=CC=CS3)(C4=CC=CS4)O)C

> <PUBCHEM_OPENEYE_ISO_SMILES>
CC1(CCC2CC(CC1N2C)OC(=O)C(C3=CC=CS3)(C4=CC=CS4)O)C

> <PUBCHEM_CACTVS_TPSA>
106

> <PUBCHEM_MONOISOTOPIC_WEIGHT>
405.143236

> <PUBCHEM_TOTAL_CHARGE>
0

> <PUBCHEM_HEAVY_ATOM_COUNT>
27

> <PUBCHEM_ATOM_DEF_STEREO_COUNT>
0

> <PUBCHEM_ATOM_UDEF_STEREO_COUNT>
3

> <PUBCHEM_BOND_DEF_STEREO_COUNT>
0

> <PUBCHEM_BOND_UDEF_STEREO_COUNT>
0

> <PUBCHEM_ISOTOPIC_ATOM_COUNT>
0

> <PUBCHEM_COMPONENT_COUNT>
1

> <PUBCHEM_CACTVS_TAUTO_COUNT>
1

> <PUBCHEM_COORDINATE_TYPE>
1
5
255

> <PUBCHEM_BONDANNOTATIONS>
1  20  8
1  26  8
14  38  3
2  21  8
2  27  8
20  22  8
21  23  8
22  24  8
23  25  8
24  26  8
25  27  8
7  28  3
9  29  3

$$$$

