12640
  -OEChem-06261207113D

 20 20  0     0  0  0  0  0  0999 V2000
   -0.7156    0.6921    0.1189 O   0  0  0  0  0  0  0  0  0  0  0  0
    0.4612   -0.9541    1.2052 O   0  0  0  0  0  0  0  0  0  0  0  0
    1.4881    0.5101   -0.2837 N   0  0  0  0  0  0  0  0  0  0  0  0
    2.8298    0.4694    0.2183 C   0  0  0  0  0  0  0  0  0  0  0  0
    2.4354   -0.3227   -0.9640 C   0  0  0  0  0  0  0  0  0  0  0  0
    0.4177   -0.0096    0.4224 C   0  0  0  0  0  0  0  0  0  0  0  0
   -1.9424   -0.0431    0.1893 C   0  0  0  0  0  0  0  0  0  0  0  0
   -3.1016    0.8843   -0.1425 C   0  0  0  0  0  0  0  0  0  0  0  0
   -1.8726   -1.2265   -0.7639 C   0  0  0  0  0  0  0  0  0  0  0  0
    2.9593   -0.0292    1.1679 H   0  0  0  0  0  0  0  0  0  0  0  0
    3.3672    1.3953    0.0753 H   0  0  0  0  0  0  0  0  0  0  0  0
    2.6913    0.0387   -1.9490 H   0  0  0  0  0  0  0  0  0  0  0  0
    2.2757   -1.3861   -0.8580 H   0  0  0  0  0  0  0  0  0  0  0  0
   -2.0803   -0.4012    1.2171 H   0  0  0  0  0  0  0  0  0  0  0  0
   -4.0615    0.3632   -0.0783 H   0  0  0  0  0  0  0  0  0  0  0  0
   -3.1182    1.7351    0.5471 H   0  0  0  0  0  0  0  0  0  0  0  0
   -2.9932    1.2993   -1.1507 H   0  0  0  0  0  0  0  0  0  0  0  0
   -2.8370   -1.7428   -0.8154 H   0  0  0  0  0  0  0  0  0  0  0  0
   -1.1256   -1.9656   -0.4599 H   0  0  0  0  0  0  0  0  0  0  0  0
   -1.6019   -0.8990   -1.7740 H   0  0  0  0  0  0  0  0  0  0  0  0
  1  6  1  0  0  0  0
  1  7  1  0  0  0  0
  2  6  2  0  0  0  0
  3  4  1  0  0  0  0
  3  5  1  0  0  0  0
  3  6  1  0  0  0  0
  4  5  1  0  0  0  0
  4 10  1  0  0  0  0
  4 11  1  0  0  0  0
  5 12  1  0  0  0  0
  5 13  1  0  0  0  0
  7  8  1  0  0  0  0
  7  9  1  0  0  0  0
  7 14  1  0  0  0  0
  8 15  1  0  0  0  0
  8 16  1  0  0  0  0
  8 17  1  0  0  0  0
  9 18  1  0  0  0  0
  9 19  1  0  0  0  0
  9 20  1  0  0  0  0
M  END
> <PUBCHEM_COMPOUND_CID>
12640

> <PUBCHEM_CONFORMER_RMSD>
0.6

> <PUBCHEM_CONFORMER_DIVERSEORDER>
1
4
12
5
8
9
6
11
7
3
2
10

> <PUBCHEM_MMFF94_PARTIAL_CHARGES>
11
1 -0.43
10 0.1
11 0.1
12 0.1
13 0.1
2 -0.57
3 -0.36
4 -0.05
5 -0.05
6 0.78
7 0.28

> <PUBCHEM_EFFECTIVE_ROTOR_COUNT>
3.6

> <PUBCHEM_PHARMACOPHORE_FEATURES>
2
1 2 acceptor
3 7 8 9 hydrophobe

> <PUBCHEM_HEAVY_ATOM_COUNT>
9

> <PUBCHEM_ATOM_DEF_STEREO_COUNT>
0

> <PUBCHEM_ATOM_UDEF_STEREO_COUNT>
0

> <PUBCHEM_BOND_DEF_STEREO_COUNT>
0

> <PUBCHEM_BOND_UDEF_STEREO_COUNT>
0

> <PUBCHEM_ISOTOPIC_ATOM_COUNT>
0

> <PUBCHEM_COMPONENT_COUNT>
1

> <PUBCHEM_CACTVS_TAUTO_COUNT>
1

> <PUBCHEM_CONFORMER_ID>
0000316000000001

> <PUBCHEM_MMFF94_ENERGY>
26.2417

> <PUBCHEM_FEATURE_SELFOVERLAP>
10.148

> <PUBCHEM_SHAPE_FINGERPRINT>
11062470 55 15647052681081188257
12716758 59 18187082870949757531
12897270 3 17967810539871878500
12932741 1 16950578640062303755
12932764 1 18411418410155533648
14325111 11 17775281651427668704
14390081 3 18273217508184693869
20201158 50 16805597105400936150
20653085 51 18340472418020453553
21040471 1 17632571622222080618
21293036 1 18187372030071405725
23235685 24 17203887465774155812
23552423 10 18335700520444582526
29004967 10 15574709175539393170
3248919 1 17095238124858736208
5084963 1 15267061406666083260

> <PUBCHEM_SHAPE_MULTIPOLES>
168.5
4.64
1.06
0.92
0.12
0.26
0.19
-0.57
-1.01
0.48
-0.12
-0.21
0.14
0.13

> <PUBCHEM_SHAPE_SELFOVERLAP>
323.232

> <PUBCHEM_SHAPE_VOLUME>
105.3

> <PUBCHEM_COORDINATE_TYPE>
2
5
10

$$$$

