3328
  -OEChem-06251223203D

 48 47  0     0  0  0  0  0  0999 V2000
    3.4560   -0.8408    1.3071 S   0  0  0  0  0  0  0  0  0  0  0  0
    6.2121    0.6502   -0.9907 O   0  0  0  0  0  0  0  0  0  0  0  0
    6.3259   -0.9372    0.6318 O   0  0  0  0  0  0  0  0  0  0  0  0
   -1.3731    2.7911   -0.3981 C   0  0  0  0  0  0  0  0  0  0  0  0
   -4.1221    0.5251    1.3453 C   0  0  0  0  0  0  0  0  0  0  0  0
    0.1360    2.6297   -0.1753 C   0  0  0  0  0  0  0  0  0  0  0  0
   -3.3690    1.3557    0.3281 C   0  0  0  0  0  0  0  0  0  0  0  0
   -2.2007    1.9843    0.5639 C   0  0  0  0  0  0  0  0  0  0  0  0
   -4.3496   -0.9327    0.9259 C   0  0  0  0  0  0  0  0  0  0  0  0
    0.6200    1.1964   -0.2346 C   0  0  0  0  0  0  0  0  0  0  0  0
   -3.9949    1.4174   -1.0415 C   0  0  0  0  0  0  0  0  0  0  0  0
   -3.0692   -1.6888    0.7015 C   0  0  0  0  0  0  0  0  0  0  0  0
    1.1628    0.5366    0.8082 C   0  0  0  0  0  0  0  0  0  0  0  0
    0.5140    0.5272   -1.5801 C   0  0  0  0  0  0  0  0  0  0  0  0
   -2.6773   -2.3244   -0.4188 C   0  0  0  0  0  0  0  0  0  0  0  0
    1.7099   -0.8583    0.8147 C   0  0  0  0  0  0  0  0  0  0  0  0
   -3.4538   -2.3617   -1.7040 C   0  0  0  0  0  0  0  0  0  0  0  0
   -1.3647   -3.0597   -0.4602 C   0  0  0  0  0  0  0  0  0  0  0  0
    4.1724   -0.3513   -0.2785 C   0  0  0  0  0  0  0  0  0  0  0  0
    5.6652   -0.2590   -0.1445 C   0  0  0  0  0  0  0  0  0  0  0  0
   -1.6279    3.8498   -0.2687 H   0  0  0  0  0  0  0  0  0  0  0  0
   -1.6001    2.5306   -1.4372 H   0  0  0  0  0  0  0  0  0  0  0  0
   -3.5918    0.5418    2.3066 H   0  0  0  0  0  0  0  0  0  0  0  0
   -5.0953    0.9975    1.5301 H   0  0  0  0  0  0  0  0  0  0  0  0
    0.3979    3.0683    0.7970 H   0  0  0  0  0  0  0  0  0  0  0  0
    0.6773    3.2222   -0.9235 H   0  0  0  0  0  0  0  0  0  0  0  0
   -1.8045    1.9265    1.5772 H   0  0  0  0  0  0  0  0  0  0  0  0
   -5.0205   -0.9663    0.0645 H   0  0  0  0  0  0  0  0  0  0  0  0
   -4.8912   -1.4380    1.7360 H   0  0  0  0  0  0  0  0  0  0  0  0
   -5.0869    1.3664   -0.9668 H   0  0  0  0  0  0  0  0  0  0  0  0
   -3.6529    0.5851   -1.6621 H   0  0  0  0  0  0  0  0  0  0  0  0
   -3.7772    2.3547   -1.5624 H   0  0  0  0  0  0  0  0  0  0  0  0
   -2.4145   -1.7322    1.5711 H   0  0  0  0  0  0  0  0  0  0  0  0
    1.2134    1.0631    1.7611 H   0  0  0  0  0  0  0  0  0  0  0  0
   -0.4660    0.0527   -1.6913 H   0  0  0  0  0  0  0  0  0  0  0  0
    1.2931   -0.2147   -1.7679 H   0  0  0  0  0  0  0  0  0  0  0  0
    0.6194    1.2691   -2.3802 H   0  0  0  0  0  0  0  0  0  0  0  0
    1.1657   -1.4261    1.5777 H   0  0  0  0  0  0  0  0  0  0  0  0
    1.5890   -1.4135   -0.1168 H   0  0  0  0  0  0  0  0  0  0  0  0
   -2.8677   -1.9015   -2.5068 H   0  0  0  0  0  0  0  0  0  0  0  0
   -4.4134   -1.8450   -1.6663 H   0  0  0  0  0  0  0  0  0  0  0  0
   -3.6595   -3.4003   -1.9846 H   0  0  0  0  0  0  0  0  0  0  0  0
   -1.5302   -4.1179   -0.6876 H   0  0  0  0  0  0  0  0  0  0  0  0
   -0.7161   -2.6352   -1.2334 H   0  0  0  0  0  0  0  0  0  0  0  0
   -0.8257   -3.0057    0.4915 H   0  0  0  0  0  0  0  0  0  0  0  0
    3.9369   -1.0839   -1.0553 H   0  0  0  0  0  0  0  0  0  0  0  0
    3.7826    0.6311   -0.5596 H   0  0  0  0  0  0  0  0  0  0  0  0
    7.1876    0.6957   -0.8982 H   0  0  0  0  0  0  0  0  0  0  0  0
  1 16  1  0  0  0  0
  1 19  1  0  0  0  0
  2 20  1  0  0  0  0
  2 48  1  0  0  0  0
  3 20  2  0  0  0  0
  4  6  1  0  0  0  0
  4  8  1  0  0  0  0
  4 21  1  0  0  0  0
  4 22  1  0  0  0  0
  5  7  1  0  0  0  0
  5  9  1  0  0  0  0
  5 23  1  0  0  0  0
  5 24  1  0  0  0  0
  6 10  1  0  0  0  0
  6 25  1  0  0  0  0
  6 26  1  0  0  0  0
  7  8  2  0  0  0  0
  7 11  1  0  0  0  0
  8 27  1  0  0  0  0
  9 12  1  0  0  0  0
  9 28  1  0  0  0  0
  9 29  1  0  0  0  0
 10 13  2  0  0  0  0
 10 14  1  0  0  0  0
 11 30  1  0  0  0  0
 11 31  1  0  0  0  0
 11 32  1  0  0  0  0
 12 15  2  0  0  0  0
 12 33  1  0  0  0  0
 13 16  1  0  0  0  0
 13 34  1  0  0  0  0
 14 35  1  0  0  0  0
 14 36  1  0  0  0  0
 14 37  1  0  0  0  0
 15 17  1  0  0  0  0
 15 18  1  0  0  0  0
 16 38  1  0  0  0  0
 16 39  1  0  0  0  0
 17 40  1  0  0  0  0
 17 41  1  0  0  0  0
 17 42  1  0  0  0  0
 18 43  1  0  0  0  0
 18 44  1  0  0  0  0
 18 45  1  0  0  0  0
 19 20  1  0  0  0  0
 19 46  1  0  0  0  0
 19 47  1  0  0  0  0
M  END
> <PUBCHEM_COMPOUND_CID>
3328

> <PUBCHEM_CONFORMER_RMSD>
1.2

> <PUBCHEM_CONFORMER_DIVERSEORDER>
2
87
111
109
91
9
129
21
78
121
10
72
88
73
114
59
141
122
52
1
40
19
77
81
55
149
154
117
156
126
136
48
128
83
124
31
49
158
144
94
54
75
61
57
28
137
152
62
89
65
60
70
12
105
108
42
20
139
43
115
45
96
24
13
118
17
46
35
74
106
71
143
130
67
155
85
11
86
148
33
160
153
47
4
147
37
104
63
103
84
25
68
146
32
97
151
150
134
93
18
116
79
39
159
90
92
38
95
36
145
142
82
53
102
138
123
3
29
110
44
140
14
127
120
51
157
133
64
107
7
99
56
16
98
80
119
101
5
113
100
41
125
26
135
23
112
76
66
132
58
15
131
22
69
34
27
8
50
30
6

> <PUBCHEM_MMFF94_PARTIAL_CHARGES>
24
1 -0.46
10 -0.28
11 0.14
12 -0.29
13 -0.29
14 0.14
15 -0.28
16 0.37
17 0.14
18 0.14
19 0.29
2 -0.65
20 0.66
27 0.15
3 -0.57
33 0.15
34 0.15
4 0.14
48 0.5
5 0.14
6 0.14
7 -0.28
8 -0.29
9 0.14

> <PUBCHEM_EFFECTIVE_ROTOR_COUNT>
10

> <PUBCHEM_PHARMACOPHORE_FEATURES>
9
1 11 hydrophobe
1 14 hydrophobe
1 2 acceptor
1 3 acceptor
3 15 17 18 hydrophobe
3 2 3 20 anion
4 1 13 16 19 hydrophobe
4 4 6 8 10 hydrophobe
4 5 7 9 12 hydrophobe

> <PUBCHEM_HEAVY_ATOM_COUNT>
20

> <PUBCHEM_ATOM_DEF_STEREO_COUNT>
0

> <PUBCHEM_ATOM_UDEF_STEREO_COUNT>
0

> <PUBCHEM_BOND_DEF_STEREO_COUNT>
0

> <PUBCHEM_BOND_UDEF_STEREO_COUNT>
2

> <PUBCHEM_ISOTOPIC_ATOM_COUNT>
0

> <PUBCHEM_COMPONENT_COUNT>
1

> <PUBCHEM_CACTVS_TAUTO_COUNT>
1

> <PUBCHEM_CONFORMER_ID>
00000D0000000002

> <PUBCHEM_MMFF94_ENERGY>
20.1101

> <PUBCHEM_FEATURE_SELFOVERLAP>
45.766

> <PUBCHEM_SHAPE_FINGERPRINT>
10366900 7 17677344916615637841
10906281 52 18123748918701226157
11014199 57 17904204724134656738
11552529 35 17822297855242454091
12553582 1 18342186522372963819
12633257 1 17676477316447912107
14251757 5 18412261701452124594
15415430 112 18341897406617382112
15537594 2 18272647973824622075
16110190 28 18339347600809249905
19377110 9 18059587884377256560
20511986 3 17560529502941309648
20600515 1 18115006585346688741
23402539 116 17775566464047597136
23559900 14 18341620299734123304
339767 52 18202003252201940369
445580 160 18336258055146006502
602551 16 18261112967742480706
6437827 68 18191868040671639710

> <PUBCHEM_SHAPE_MULTIPOLES>
403.7
12.07
3.24
1.38
20.48
0.32
0.17
2.96
-0.43
-3.77
0.79
-0.55
0.29
-1.05

> <PUBCHEM_SHAPE_SELFOVERLAP>
754.588

> <PUBCHEM_SHAPE_VOLUME>
253.5

> <PUBCHEM_COORDINATE_TYPE>
2
5
10

$$$$

