14438
  -OEChem-06241222432D

 56 57  0     0  0  0  0  0  0999 V2000
    0.0000    5.7300    0.0000 Cl  0  0  0  0  0  0  0  0  0  0  0  0
    3.3374    6.5936    0.0000 S   0  0  0  0  0  0  0  0  0  0  0  0
    1.7595   10.7249    0.0000 O   0  0  0  0  0  0  0  0  0  0  0  0
    2.6255    9.2249    0.0000 O   0  0  0  0  0  0  0  0  0  0  0  0
    6.0896   10.2249    0.0000 O   0  5  0  0  0  0  0  0  0  0  0  0
    5.2236   11.7249    0.0000 O   0  0  0  0  0  0  0  0  0  0  0  0
    5.5694    1.4030    0.0000 N   0  3  0  0  0  0  0  0  0  0  0  0
    4.7034    1.9030    0.0000 C   0  0  0  0  0  0  0  0  0  0  0  0
    4.7034    2.9030    0.0000 C   0  0  0  0  0  0  0  0  0  0  0  0
    3.8374    4.4030    0.0000 C   0  0  0  0  0  0  0  0  0  0  0  0
    3.8374    3.4030    0.0000 C   0  0  0  0  0  0  0  0  0  0  0  0
    4.7384    4.8368    0.0000 C   0  0  0  0  0  0  0  0  0  0  0  0
    2.9365    4.8369    0.0000 C   0  0  0  0  0  0  0  0  0  0  0  0
    6.4355    0.9029    0.0000 C   0  0  0  0  0  0  0  0  0  0  0  0
    5.0694    0.5369    0.0000 C   0  0  0  0  0  0  0  0  0  0  0  0
    4.9609    5.8118    0.0000 C   0  0  0  0  0  0  0  0  0  0  0  0
    4.3374    6.5936    0.0000 C   0  0  0  0  0  0  0  0  0  0  0  0
    2.7139    5.8118    0.0000 C   0  0  0  0  0  0  0  0  0  0  0  0
    5.4909    4.1167    0.0000 C   0  0  0  0  0  0  0  0  0  0  0  0
    2.1839    4.1167    0.0000 C   0  0  0  0  0  0  0  0  0  0  0  0
    5.9514    6.1341    0.0000 C   0  0  0  0  0  0  0  0  0  0  0  0
    1.7234    6.1341    0.0000 C   0  0  0  0  0  0  0  0  0  0  0  0
    6.4886    4.4160    0.0000 C   0  0  0  0  0  0  0  0  0  0  0  0
    6.7204    5.4315    0.0000 C   0  0  0  0  0  0  0  0  0  0  0  0
    1.1862    4.4160    0.0000 C   0  0  0  0  0  0  0  0  0  0  0  0
    0.9544    5.4316    0.0000 C   0  0  0  0  0  0  0  0  0  0  0  0
    3.4915   10.7249    0.0000 C   0  0  0  0  0  0  0  0  0  0  0  0
    4.3576   10.2249    0.0000 C   0  0  0  0  0  0  0  0  0  0  0  0
    2.6255   10.2249    0.0000 C   0  0  0  0  0  0  0  0  0  0  0  0
    5.2236   10.7249    0.0000 C   0  0  0  0  0  0  0  0  0  0  0  0
    5.8795    1.9399    0.0000 H   0  0  0  0  0  0  0  0  0  0  0  0
    4.4914    1.3204    0.0000 H   0  0  0  0  0  0  0  0  0  0  0  0
    4.0928    2.0106    0.0000 H   0  0  0  0  0  0  0  0  0  0  0  0
    4.9155    3.4856    0.0000 H   0  0  0  0  0  0  0  0  0  0  0  0
    5.3140    2.7953    0.0000 H   0  0  0  0  0  0  0  0  0  0  0  0
    3.3005    3.0930    0.0000 H   0  0  0  0  0  0  0  0  0  0  0  0
    6.1255    0.3660    0.0000 H   0  0  0  0  0  0  0  0  0  0  0  0
    6.7455    1.4399    0.0000 H   0  0  0  0  0  0  0  0  0  0  0  0
    6.9724    0.5929    0.0000 H   0  0  0  0  0  0  0  0  0  0  0  0
    5.6064    0.2269    0.0000 H   0  0  0  0  0  0  0  0  0  0  0  0
    4.7594    0.0000    0.0000 H   0  0  0  0  0  0  0  0  0  0  0  0
    4.5325    0.8469    0.0000 H   0  0  0  0  0  0  0  0  0  0  0  0
    4.8960    6.8626    0.0000 H   0  0  0  0  0  0  0  0  0  0  0  0
    4.1995    7.1981    0.0000 H   0  0  0  0  0  0  0  0  0  0  0  0
    5.3460    3.5138    0.0000 H   0  0  0  0  0  0  0  0  0  0  0  0
    2.3288    3.5139    0.0000 H   0  0  0  0  0  0  0  0  0  0  0  0
    6.0824    6.7401    0.0000 H   0  0  0  0  0  0  0  0  0  0  0  0
    1.5925    6.7401    0.0000 H   0  0  0  0  0  0  0  0  0  0  0  0
    6.9415    3.9925    0.0000 H   0  0  0  0  0  0  0  0  0  0  0  0
    7.3122    5.6165    0.0000 H   0  0  0  0  0  0  0  0  0  0  0  0
    0.7333    3.9926    0.0000 H   0  0  0  0  0  0  0  0  0  0  0  0
    3.0930   11.1999    0.0000 H   0  0  0  0  0  0  0  0  0  0  0  0
    3.8901   11.1999    0.0000 H   0  0  0  0  0  0  0  0  0  0  0  0
    4.7561    9.7500    0.0000 H   0  0  0  0  0  0  0  0  0  0  0  0
    3.9590    9.7500    0.0000 H   0  0  0  0  0  0  0  0  0  0  0  0
    1.2226   10.4149    0.0000 H   0  0  0  0  0  0  0  0  0  0  0  0
  1 26  1  0  0  0  0
  2 17  1  0  0  0  0
  2 18  1  0  0  0  0
  3 29  1  0  0  0  0
  3 56  1  0  0  0  0
  4 29  2  0  0  0  0
  5 30  1  0  0  0  0
  6 30  2  0  0  0  0
  7  8  1  0  0  0  0
  7 14  1  0  0  0  0
  7 15  1  0  0  0  0
  7 31  1  0  0  0  0
  8  9  1  0  0  0  0
  8 32  1  0  0  0  0
  8 33  1  0  0  0  0
  9 11  1  0  0  0  0
  9 34  1  0  0  0  0
  9 35  1  0  0  0  0
 10 11  2  3  0  0  0
 10 12  1  0  0  0  0
 10 13  1  0  0  0  0
 11 36  1  0  0  0  0
 12 16  1  0  0  0  0
 12 19  2  0  0  0  0
 13 18  2  0  0  0  0
 13 20  1  0  0  0  0
 14 37  1  0  0  0  0
 14 38  1  0  0  0  0
 14 39  1  0  0  0  0
 15 40  1  0  0  0  0
 15 41  1  0  0  0  0
 15 42  1  0  0  0  0
 16 17  1  0  0  0  0
 16 21  2  0  0  0  0
 17 43  1  0  0  0  0
 17 44  1  0  0  0  0
 18 22  1  0  0  0  0
 19 23  1  0  0  0  0
 19 45  1  0  0  0  0
 20 25  2  0  0  0  0
 20 46  1  0  0  0  0
 21 24  1  0  0  0  0
 21 47  1  0  0  0  0
 22 26  2  0  0  0  0
 22 48  1  0  0  0  0
 23 24  2  0  0  0  0
 23 49  1  0  0  0  0
 24 50  1  0  0  0  0
 25 26  1  0  0  0  0
 25 51  1  0  0  0  0
 27 28  1  0  0  0  0
 27 29  1  0  0  0  0
 27 52  1  0  0  0  0
 27 53  1  0  0  0  0
 28 30  1  0  0  0  0
 28 54  1  0  0  0  0
 28 55  1  0  0  0  0
M  CHG  2   5  -1   7   1
M  END
> <PUBCHEM_COMPOUND_CID>
14438

> <PUBCHEM_COMPOUND_CANONICALIZED>
1

> <PUBCHEM_CACTVS_COMPLEXITY>
496

> <PUBCHEM_CACTVS_HBOND_ACCEPTOR>
5

> <PUBCHEM_CACTVS_HBOND_DONOR>
2

> <PUBCHEM_CACTVS_ROTATABLE_BOND>
5

> <PUBCHEM_CACTVS_SUBSKEYS>
AAADceB6OABEAAAAAAAAAAAAAAAAAAAAAAAwYAAABIAAAAABQAAAHgYQCAAADALF2CSyCYPAAgiIAiDSCAACAAAgDRAIiJkIAogIIDKhExCEYAAkkAAoiAdDgMAOhAAAABAUAAAIAAAAICgAAAAAAAAAAA==

> <PUBCHEM_IUPAC_OPENEYE_NAME>
3-(3-chloro-6H-benzo[c][1]benzothiepin-11-ylidene)propyl-dimethyl-ammonium; 4-hydroxy-4-oxo-butanoate

> <PUBCHEM_IUPAC_CAS_NAME>
3-(3-chloro-6H-benzo[c][1]benzothiepin-11-ylidene)propyl-dimethylammonium; 4-hydroxy-4-oxobutanoate

> <PUBCHEM_IUPAC_NAME>
3-(3-chloro-6H-benzo[c][1]benzothiepin-11-ylidene)propyl-dimethylazanium; 4-hydroxy-4-oxobutanoate

> <PUBCHEM_IUPAC_SYSTEMATIC_NAME>
3-(3-chloranyl-6H-benzo[c][1]benzothiepin-11-ylidene)propyl-dimethyl-azanium; 4-oxidanyl-4-oxidanylidene-butanoate

> <PUBCHEM_IUPAC_TRADITIONAL_NAME>
3-(3-chloro-6H-benzo[c][1]benzothiepin-11-ylidene)propyl-dimethyl-ammonium; 4-hydroxy-4-keto-butyrate

> <PUBCHEM_IUPAC_INCHI>
InChI=1S/C19H20ClNS.C4H6O4/c1-21(2)11-5-8-17-16-7-4-3-6-14(16)13-22-19-12-15(20)9-10-18(17)19;5-3(6)1-2-4(7)8/h3-4,6-10,12H,5,11,13H2,1-2H3;1-2H2,(H,5,6)(H,7,8)

> <PUBCHEM_IUPAC_INCHIKEY>
TUBURGXQLSDVKU-UHFFFAOYSA-N

> <PUBCHEM_EXACT_MASS>
447.127107

> <PUBCHEM_MOLECULAR_FORMULA>
C23H26ClNO4S

> <PUBCHEM_MOLECULAR_WEIGHT>
447.97484

> <PUBCHEM_OPENEYE_CAN_SMILES>
C[NH+](C)CCC=C1C2=C(C=C(C=C2)Cl)SCC3=CC=CC=C31.C(CC(=O)[O-])C(=O)O

> <PUBCHEM_OPENEYE_ISO_SMILES>
C[NH+](C)CCC=C1C2=C(C=C(C=C2)Cl)SCC3=CC=CC=C31.C(CC(=O)[O-])C(=O)O

> <PUBCHEM_CACTVS_TPSA>
107

> <PUBCHEM_MONOISOTOPIC_WEIGHT>
447.127107

> <PUBCHEM_TOTAL_CHARGE>
0

> <PUBCHEM_HEAVY_ATOM_COUNT>
30

> <PUBCHEM_ATOM_DEF_STEREO_COUNT>
0

> <PUBCHEM_ATOM_UDEF_STEREO_COUNT>
0

> <PUBCHEM_BOND_DEF_STEREO_COUNT>
0

> <PUBCHEM_BOND_UDEF_STEREO_COUNT>
1

> <PUBCHEM_ISOTOPIC_ATOM_COUNT>
0

> <PUBCHEM_COMPONENT_COUNT>
2

> <PUBCHEM_CACTVS_TAUTO_COUNT>
1

> <PUBCHEM_COORDINATE_TYPE>
1
5
255

> <PUBCHEM_BONDANNOTATIONS>
10  11  1
12  16  8
12  19  8
13  18  8
13  20  8
16  21  8
18  22  8
19  23  8
20  25  8
21  24  8
22  26  8
23  24  8
25  26  8

$$$$

