4884
  -OEChem-06261200243D

 19 19  0     0  0  0  0  0  0999 V2000
    3.7129   -0.0768    0.0011 O   0  0  0  0  0  0  0  0  0  0  0  0
   -0.7707    0.9596   -0.0001 N   0  3  0  0  0  0  0  0  0  0  0  0
    2.4511   -0.6770    0.0005 N   0  0  0  0  0  0  0  0  0  0  0  0
    0.1107   -0.0497   -0.0011 C   0  0  0  0  0  0  0  0  0  0  0  0
   -2.0951    0.7554    0.0009 C   0  0  0  0  0  0  0  0  0  0  0  0
   -0.3365   -1.3632   -0.0007 C   0  0  0  0  0  0  0  0  0  0  0  0
   -0.2994    2.3460   -0.0002 C   0  0  0  0  0  0  0  0  0  0  0  0
   -2.5995   -0.5372    0.0008 C   0  0  0  0  0  0  0  0  0  0  0  0
   -1.7070   -1.6049    0.0000 C   0  0  0  0  0  0  0  0  0  0  0  0
    1.5334    0.2478   -0.0010 C   0  0  0  0  0  0  0  0  0  0  0  0
   -2.7467    1.6211    0.0015 H   0  0  0  0  0  0  0  0  0  0  0  0
    0.3475   -2.2060   -0.0011 H   0  0  0  0  0  0  0  0  0  0  0  0
    0.2818    2.5205   -0.9100 H   0  0  0  0  0  0  0  0  0  0  0  0
   -1.1468    3.0380    0.0004 H   0  0  0  0  0  0  0  0  0  0  0  0
    0.2827    2.5202    0.9091 H   0  0  0  0  0  0  0  0  0  0  0  0
   -3.6699   -0.7125    0.0014 H   0  0  0  0  0  0  0  0  0  0  0  0
   -2.0797   -2.6249    0.0001 H   0  0  0  0  0  0  0  0  0  0  0  0
    1.8688    1.2964   -0.0017 H   0  0  0  0  0  0  0  0  0  0  0  0
    4.2982   -0.8530    0.0022 H   0  0  0  0  0  0  0  0  0  0  0  0
  1  3  1  0  0  0  0
  1 19  1  0  0  0  0
  2  4  1  0  0  0  0
  2  5  2  0  0  0  0
  2  7  1  0  0  0  0
  3 10  2  0  0  0  0
  4  6  2  0  0  0  0
  4 10  1  0  0  0  0
  5  8  1  0  0  0  0
  5 11  1  0  0  0  0
  6  9  1  0  0  0  0
  6 12  1  0  0  0  0
  7 13  1  0  0  0  0
  7 14  1  0  0  0  0
  7 15  1  0  0  0  0
  8  9  2  0  0  0  0
  8 16  1  0  0  0  0
  9 17  1  0  0  0  0
 10 18  1  0  0  0  0
M  CHG  1   2   1
M  END
> <PUBCHEM_COMPOUND_CID>
4884

> <PUBCHEM_CONFORMER_RMSD>
0.4

> <PUBCHEM_CONFORMER_DIVERSEORDER>
1

> <PUBCHEM_MMFF94_PARTIAL_CHARGES>
16
1 -0.34
10 0.3
11 0.15
12 0.15
16 0.15
17 0.15
18 0.06
19 0.4
2 -0.21
3 -0.51
4 0.45
5 0.21
6 -0.15
7 0.49
8 -0.15
9 -0.15

> <PUBCHEM_EFFECTIVE_ROTOR_COUNT>
1

> <PUBCHEM_PHARMACOPHORE_FEATURES>
3
1 1 anion
1 3 acceptor
6 2 4 5 6 8 9 rings

> <PUBCHEM_HEAVY_ATOM_COUNT>
10

> <PUBCHEM_ATOM_DEF_STEREO_COUNT>
0

> <PUBCHEM_ATOM_UDEF_STEREO_COUNT>
0

> <PUBCHEM_BOND_DEF_STEREO_COUNT>
0

> <PUBCHEM_BOND_UDEF_STEREO_COUNT>
1

> <PUBCHEM_ISOTOPIC_ATOM_COUNT>
0

> <PUBCHEM_COMPONENT_COUNT>
1

> <PUBCHEM_CACTVS_TAUTO_COUNT>
2

> <PUBCHEM_CONFORMER_ID>
0000131400000001

> <PUBCHEM_MMFF94_ENERGY>
30.5601

> <PUBCHEM_FEATURE_SELFOVERLAP>
15.223

> <PUBCHEM_SHAPE_FINGERPRINT>
10857977 72 18336557027106947826
13024252 1 17274820263912302779
14128692 85 18267581312601008285
14325111 11 18338797922225554018
16945 1 18410855490277374375
193761 8 17690280409028886147
20871998 184 18259982652182126551
21040471 1 18050286173981226373
23402655 69 18121237617443324741
23552423 10 18055916493764398919
241688 4 18339084791686548033
2748010 2 18266183833459339413
369184 2 18409732871704557370

> <PUBCHEM_SHAPE_MULTIPOLES>
189.96
3.98
1.88
0.59
3.45
0.84
0
-0.97
0
-0.65
0
-0.05
0
0

> <PUBCHEM_SHAPE_SELFOVERLAP>
389.836

> <PUBCHEM_SHAPE_VOLUME>
111

> <PUBCHEM_COORDINATE_TYPE>
2
5
10

$$$$

