11924
  -OEChem-06261206173D

 28 29  0     0  0  0  0  0  0999 V2000
   -1.5933   -2.3160   -0.9445 O   0  0  0  0  0  0  0  0  0  0  0  0
   -2.6799   -2.2091    1.0490 O   0  0  0  0  0  0  0  0  0  0  0  0
    0.2500   -0.3206    1.1859 C   0  0  0  0  0  0  0  0  0  0  0  0
   -0.8262    0.4468    0.4890 C   0  0  0  0  0  0  0  0  0  0  0  0
    1.6079   -0.2080    0.5251 C   0  0  0  0  0  0  0  0  0  0  0  0
   -1.9548   -0.1954   -0.0202 C   0  0  0  0  0  0  0  0  0  0  0  0
   -0.6883    1.8280    0.3519 C   0  0  0  0  0  0  0  0  0  0  0  0
    2.4630    0.8095    0.9094 C   0  0  0  0  0  0  0  0  0  0  0  0
    1.9625   -1.1249   -0.4485 C   0  0  0  0  0  0  0  0  0  0  0  0
   -2.9456    0.5436   -0.6668 C   0  0  0  0  0  0  0  0  0  0  0  0
   -1.6791    2.5671   -0.2945 C   0  0  0  0  0  0  0  0  0  0  0  0
   -2.8077    1.9249   -0.8039 C   0  0  0  0  0  0  0  0  0  0  0  0
    3.7136    0.9135    0.3004 C   0  0  0  0  0  0  0  0  0  0  0  0
    3.2131   -1.0211   -1.0574 C   0  0  0  0  0  0  0  0  0  0  0  0
   -2.1238   -1.6365    0.1079 C   0  0  0  0  0  0  0  0  0  0  0  0
    4.0886   -0.0018   -0.6829 C   0  0  0  0  0  0  0  0  0  0  0  0
    0.0130   -1.3841    1.3041 H   0  0  0  0  0  0  0  0  0  0  0  0
    0.3190    0.0458    2.2204 H   0  0  0  0  0  0  0  0  0  0  0  0
    0.1660    2.3609    0.7561 H   0  0  0  0  0  0  0  0  0  0  0  0
    2.1902    1.5205    1.6835 H   0  0  0  0  0  0  0  0  0  0  0  0
    1.2883   -1.9221   -0.7466 H   0  0  0  0  0  0  0  0  0  0  0  0
   -3.8297    0.0546   -1.0677 H   0  0  0  0  0  0  0  0  0  0  0  0
   -1.5746    3.6433   -0.3969 H   0  0  0  0  0  0  0  0  0  0  0  0
   -3.5797    2.5006   -1.3061 H   0  0  0  0  0  0  0  0  0  0  0  0
    4.3967    1.7052    0.5942 H   0  0  0  0  0  0  0  0  0  0  0  0
    3.5052   -1.7340   -1.8230 H   0  0  0  0  0  0  0  0  0  0  0  0
    5.0626    0.0786   -1.1565 H   0  0  0  0  0  0  0  0  0  0  0  0
   -1.7095   -3.2854   -0.8492 H   0  0  0  0  0  0  0  0  0  0  0  0
  1 15  1  0  0  0  0
  1 28  1  0  0  0  0
  2 15  2  0  0  0  0
  3  4  1  0  0  0  0
  3  5  1  0  0  0  0
  3 17  1  0  0  0  0
  3 18  1  0  0  0  0
  4  6  1  0  0  0  0
  4  7  2  0  0  0  0
  5  8  2  0  0  0  0
  5  9  1  0  0  0  0
  6 10  2  0  0  0  0
  6 15  1  0  0  0  0
  7 11  1  0  0  0  0
  7 19  1  0  0  0  0
  8 13  1  0  0  0  0
  8 20  1  0  0  0  0
  9 14  2  0  0  0  0
  9 21  1  0  0  0  0
 10 12  1  0  0  0  0
 10 22  1  0  0  0  0
 11 12  2  0  0  0  0
 11 23  1  0  0  0  0
 12 24  1  0  0  0  0
 13 16  2  0  0  0  0
 13 25  1  0  0  0  0
 14 16  1  0  0  0  0
 14 26  1  0  0  0  0
 16 27  1  0  0  0  0
M  END
> <PUBCHEM_COMPOUND_CID>
11924

> <PUBCHEM_CONFORMER_RMSD>
0.6

> <PUBCHEM_CONFORMER_DIVERSEORDER>
1
14
2
15
5
12
11
6
13
4
10
3
7
9
8

> <PUBCHEM_MMFF94_PARTIAL_CHARGES>
26
1 -0.65
10 -0.15
11 -0.15
12 -0.15
13 -0.15
14 -0.15
15 0.63
16 -0.15
19 0.15
2 -0.57
20 0.15
21 0.15
22 0.15
23 0.15
24 0.15
25 0.15
26 0.15
27 0.15
28 0.5
3 0.29
4 -0.14
5 -0.14
6 0.09
7 -0.15
8 -0.15
9 -0.15

> <PUBCHEM_EFFECTIVE_ROTOR_COUNT>
3

> <PUBCHEM_PHARMACOPHORE_FEATURES>
5
1 1 acceptor
1 2 acceptor
3 1 2 15 anion
6 4 6 7 10 11 12 rings
6 5 8 9 13 14 16 rings

> <PUBCHEM_HEAVY_ATOM_COUNT>
16

> <PUBCHEM_ATOM_DEF_STEREO_COUNT>
0

> <PUBCHEM_ATOM_UDEF_STEREO_COUNT>
0

> <PUBCHEM_BOND_DEF_STEREO_COUNT>
0

> <PUBCHEM_BOND_UDEF_STEREO_COUNT>
0

> <PUBCHEM_ISOTOPIC_ATOM_COUNT>
0

> <PUBCHEM_COMPONENT_COUNT>
1

> <PUBCHEM_CACTVS_TAUTO_COUNT>
1

> <PUBCHEM_CONFORMER_ID>
00002E9400000001

> <PUBCHEM_MMFF94_ENERGY>
51.0894

> <PUBCHEM_FEATURE_SELFOVERLAP>
25.429

> <PUBCHEM_SHAPE_FINGERPRINT>
10498660 4 18200321059768495133
10608611 8 18407764733391207776
11640471 11 17131837611452054476
12138202 97 18338806709470146509
12173636 292 18196942277789938285
12186901 62 18342728659025332911
12500047 106 18339928233042782420
13296908 3 18334011666458078242
13764800 53 18201432618842216081
15669948 3 18342187669039203570
15775835 57 17703228545704651972
16945 1 18343026626671386881
17134986 127 17693947701140883637
17357779 13 18044395837194595783
1741750 31 18267590276234970753
17844478 74 18335130947730750962
18186145 218 18118410776282878629
18534176 82 18409731780814454229
19422 9 5545198350457122608
19868273 293 18201439228628118292
200 152 16805328829111913644
20279233 1 18040161716631355114
20645476 183 17845655979331771283
20645477 56 18412263973268187088
20645477 70 17385723638477920374
20871999 31 18411426098579432509
21524375 3 17840311347687883833
22213442 358 18264772051765293088
22802520 49 18334010626996773914
23402539 116 18202007599515984912
23557571 272 18411697647633702616
23559900 14 18262804090141584698
25 1 17901667395010541333
2748010 2 18121800330265942625
4028521 119 18271531995281982165
576247 118 17913472559458471707
6049 1 18260827073065003168
81228 2 18412831261491791193
93112 12 18337107973027787756
9709674 26 18261675960445024230

> <PUBCHEM_SHAPE_MULTIPOLES>
317.53
6.39
2.41
1.08
4.64
0.18
-0.04
-0.45
1.49
-2.36
0.17
0.16
0.16
0.94

> <PUBCHEM_SHAPE_SELFOVERLAP>
686.608

> <PUBCHEM_SHAPE_VOLUME>
173.4

> <PUBCHEM_COORDINATE_TYPE>
2
5
10

$$$$

