13425
  -OEChem-06261214062D

 34 33  0     0  0  0  0  0  0999 V2000
    2.2150    0.0000    0.0000 Br  0  5  0  0  0  0  0  0  0  0  0  0
    2.6760    3.4750    0.0000 O   0  0  0  0  0  0  0  0  0  0  0  0
    0.9440    3.4750    0.0000 O   0  0  0  0  0  0  0  0  0  0  0  0
    0.3100    5.8410    0.0000 O   0  0  0  0  0  0  0  0  0  0  0  0
    3.3100    5.8410    0.0000 N   0  3  0  0  0  0  0  0  0  0  0  0
    1.8100    4.9750    0.0000 C   0  0  0  0  0  0  0  0  0  0  0  0
    2.3100    5.8410    0.0000 C   0  0  0  0  0  0  0  0  0  0  0  0
    2.6760    4.4750    0.0000 C   0  0  0  0  0  0  0  0  0  0  0  0
    0.9440    4.4750    0.0000 C   0  0  0  0  0  0  0  0  0  0  0  0
    1.3100    5.8410    0.0000 C   0  0  0  0  0  0  0  0  0  0  0  0
    4.3100    5.8410    0.0000 C   0  0  0  0  0  0  0  0  0  0  0  0
    3.3100    6.8410    0.0000 C   0  0  0  0  0  0  0  0  0  0  0  0
    3.3100    4.8410    0.0000 C   0  0  0  0  0  0  0  0  0  0  0  0
    1.8100    2.9750    0.0000 C   0  0  0  0  0  0  0  0  0  0  0  0
    2.4177    6.4516    0.0000 H   0  0  0  0  0  0  0  0  0  0  0  0
    1.7274    6.0530    0.0000 H   0  0  0  0  0  0  0  0  0  0  0  0
    3.2866    4.3673    0.0000 H   0  0  0  0  0  0  0  0  0  0  0  0
    2.8881    5.0576    0.0000 H   0  0  0  0  0  0  0  0  0  0  0  0
    0.7319    5.0576    0.0000 H   0  0  0  0  0  0  0  0  0  0  0  0
    0.3334    4.3673    0.0000 H   0  0  0  0  0  0  0  0  0  0  0  0
    1.8926    6.0530    0.0000 H   0  0  0  0  0  0  0  0  0  0  0  0
    1.2023    6.4516    0.0000 H   0  0  0  0  0  0  0  0  0  0  0  0
    4.3100    5.2210    0.0000 H   0  0  0  0  0  0  0  0  0  0  0  0
    4.9300    5.8410    0.0000 H   0  0  0  0  0  0  0  0  0  0  0  0
    3.9300    6.8410    0.0000 H   0  0  0  0  0  0  0  0  0  0  0  0
    3.3100    7.4610    0.0000 H   0  0  0  0  0  0  0  0  0  0  0  0
    2.6900    6.8410    0.0000 H   0  0  0  0  0  0  0  0  0  0  0  0
    2.6900    4.8410    0.0000 H   0  0  0  0  0  0  0  0  0  0  0  0
    3.3100    4.2210    0.0000 H   0  0  0  0  0  0  0  0  0  0  0  0
    3.9300    4.8410    0.0000 H   0  0  0  0  0  0  0  0  0  0  0  0
    4.3100    6.4610    0.0000 H   0  0  0  0  0  0  0  0  0  0  0  0
    1.4115    2.5000    0.0000 H   0  0  0  0  0  0  0  0  0  0  0  0
    2.2085    2.5000    0.0000 H   0  0  0  0  0  0  0  0  0  0  0  0
    0.0000    6.3779    0.0000 H   0  0  0  0  0  0  0  0  0  0  0  0
  2  8  1  0  0  0  0
  2 14  1  0  0  0  0
  3  9  1  0  0  0  0
  3 14  1  0  0  0  0
  4 10  1  0  0  0  0
  4 34  1  0  0  0  0
  5  7  1  0  0  0  0
  5 11  1  0  0  0  0
  5 12  1  0  0  0  0
  5 13  1  0  0  0  0
  6  7  1  0  0  0  0
  6  8  1  0  0  0  0
  6  9  1  0  0  0  0
  6 10  1  0  0  0  0
  7 15  1  0  0  0  0
  7 16  1  0  0  0  0
  8 17  1  0  0  0  0
  8 18  1  0  0  0  0
  9 19  1  0  0  0  0
  9 20  1  0  0  0  0
 10 21  1  0  0  0  0
 10 22  1  0  0  0  0
 11 23  1  0  0  0  0
 11 24  1  0  0  0  0
 11 31  1  0  0  0  0
 12 25  1  0  0  0  0
 12 26  1  0  0  0  0
 12 27  1  0  0  0  0
 13 28  1  0  0  0  0
 13 29  1  0  0  0  0
 13 30  1  0  0  0  0
 14 32  1  0  0  0  0
 14 33  1  0  0  0  0
M  CHG  2   1  -1   5   1
M  END
> <PUBCHEM_COMPOUND_CID>
13425

> <PUBCHEM_COMPOUND_CANONICALIZED>
1

> <PUBCHEM_CACTVS_COMPLEXITY>
159

> <PUBCHEM_CACTVS_HBOND_ACCEPTOR>
4

> <PUBCHEM_CACTVS_HBOND_DONOR>
1

> <PUBCHEM_CACTVS_ROTATABLE_BOND>
3

> <PUBCHEM_CACTVS_SUBSKEYS>
AAADceByMAAAEAAAAAAAAAAAAAAAAAAAAAAkAAAAAAAAAAAAAAAAHgAACAAADgDhgAcCCAMABgAAAAAAAAAAAAAAAAAAAAAIAAAQEAAAAAAkQAADAAAEAAAAAAAAAAAAAAAAAAAAAAAAAAAAAAAAAAAAAA==

> <PUBCHEM_IUPAC_OPENEYE_NAME>
[5-(hydroxymethyl)-1,3-dioxan-5-yl]methyl-trimethyl-ammonium bromide

> <PUBCHEM_IUPAC_CAS_NAME>
[5-(hydroxymethyl)-1,3-dioxan-5-yl]methyl-trimethylammonium bromide

> <PUBCHEM_IUPAC_NAME>
[5-(hydroxymethyl)-1,3-dioxan-5-yl]methyl-trimethylazanium bromide

> <PUBCHEM_IUPAC_SYSTEMATIC_NAME>
[5-(hydroxymethyl)-1,3-dioxan-5-yl]methyl-trimethyl-azanium bromide

> <PUBCHEM_IUPAC_TRADITIONAL_NAME>
trimethyl-[(5-methylol-1,3-dioxan-5-yl)methyl]ammonium bromide

> <PUBCHEM_IUPAC_INCHI>
InChI=1S/C9H20NO3.BrH/c1-10(2,3)4-9(5-11)6-12-8-13-7-9;/h11H,4-8H2,1-3H3;1H/q+1;/p-1

> <PUBCHEM_IUPAC_INCHIKEY>
QPZCOIFHUDVBBR-UHFFFAOYSA-M

> <PUBCHEM_EXACT_MASS>
269.062656

> <PUBCHEM_MOLECULAR_FORMULA>
C9H20BrNO3

> <PUBCHEM_MOLECULAR_WEIGHT>
270.164

> <PUBCHEM_OPENEYE_CAN_SMILES>
C[N+](C)(C)CC1(COCOC1)CO.[Br-]

> <PUBCHEM_OPENEYE_ISO_SMILES>
C[N+](C)(C)CC1(COCOC1)CO.[Br-]

> <PUBCHEM_CACTVS_TPSA>
38.7

> <PUBCHEM_MONOISOTOPIC_WEIGHT>
269.062656

> <PUBCHEM_TOTAL_CHARGE>
0

> <PUBCHEM_HEAVY_ATOM_COUNT>
14

> <PUBCHEM_ATOM_DEF_STEREO_COUNT>
0

> <PUBCHEM_ATOM_UDEF_STEREO_COUNT>
0

> <PUBCHEM_BOND_DEF_STEREO_COUNT>
0

> <PUBCHEM_BOND_UDEF_STEREO_COUNT>
0

> <PUBCHEM_ISOTOPIC_ATOM_COUNT>
0

> <PUBCHEM_COMPONENT_COUNT>
2

> <PUBCHEM_CACTVS_TAUTO_COUNT>
1

> <PUBCHEM_COORDINATE_TYPE>
1
5
255

$$$$

