12701
  -OEChem-06261207163D

 15 14  0     0  0  0  0  0  0999 V2000
    0.2890    2.0573    0.2494 F   0  0  0  0  0  0  0  0  0  0  0  0
   -1.3897    1.5680   -1.0568 F   0  0  0  0  0  0  0  0  0  0  0  0
   -1.6136    1.4450    1.1022 F   0  0  0  0  0  0  0  0  0  0  0  0
   -2.4570   -1.0518   -0.2276 F   0  0  0  0  0  0  0  0  0  0  0  0
   -0.6727   -2.5346   -0.1692 F   0  0  0  0  0  0  0  0  0  0  0  0
    1.8915    0.5108   -0.3639 O   0  0  0  0  0  0  0  0  0  0  0  0
    1.6342   -1.5429    0.6378 O   0  0  0  0  0  0  0  0  0  0  0  0
   -0.2884   -0.2257    0.0246 C   0  0  0  0  0  0  0  0  0  0  0  0
   -0.7500    1.1979    0.0830 C   0  0  0  0  0  0  0  0  0  0  0  0
    1.1695   -0.5235    0.1478 C   0  0  0  0  0  0  0  0  0  0  0  0
   -1.1272   -1.2636   -0.1178 C   0  0  0  0  0  0  0  0  0  0  0  0
    3.3144    0.3630   -0.3094 C   0  0  0  0  0  0  0  0  0  0  0  0
    3.6464    0.2770    0.7296 H   0  0  0  0  0  0  0  0  0  0  0  0
    3.7657    1.2564   -0.7493 H   0  0  0  0  0  0  0  0  0  0  0  0
    3.6268   -0.5106   -0.8895 H   0  0  0  0  0  0  0  0  0  0  0  0
  1  9  1  0  0  0  0
  2  9  1  0  0  0  0
  3  9  1  0  0  0  0
  4 11  1  0  0  0  0
  5 11  1  0  0  0  0
  6 10  1  0  0  0  0
  6 12  1  0  0  0  0
  7 10  2  0  0  0  0
  8  9  1  0  0  0  0
  8 10  1  0  0  0  0
  8 11  2  0  0  0  0
 12 13  1  0  0  0  0
 12 14  1  0  0  0  0
 12 15  1  0  0  0  0
M  END
> <PUBCHEM_COMPOUND_CID>
12701

> <PUBCHEM_CONFORMER_RMSD>
0.6

> <PUBCHEM_CONFORMER_DIVERSEORDER>
1
2

> <PUBCHEM_MMFF94_PARTIAL_CHARGES>
12
1 -0.34
10 0.71
11 0.3
12 0.28
2 -0.34
3 -0.34
4 -0.15
5 -0.15
6 -0.43
7 -0.57
8 -0.12
9 1.16

> <PUBCHEM_EFFECTIVE_ROTOR_COUNT>
3

> <PUBCHEM_PHARMACOPHORE_FEATURES>
1
1 7 acceptor

> <PUBCHEM_HEAVY_ATOM_COUNT>
12

> <PUBCHEM_ATOM_DEF_STEREO_COUNT>
0

> <PUBCHEM_ATOM_UDEF_STEREO_COUNT>
0

> <PUBCHEM_BOND_DEF_STEREO_COUNT>
0

> <PUBCHEM_BOND_UDEF_STEREO_COUNT>
0

> <PUBCHEM_ISOTOPIC_ATOM_COUNT>
0

> <PUBCHEM_COMPONENT_COUNT>
1

> <PUBCHEM_CACTVS_TAUTO_COUNT>
1

> <PUBCHEM_CONFORMER_ID>
0000319D00000001

> <PUBCHEM_MMFF94_ENERGY>
15.9854

> <PUBCHEM_FEATURE_SELFOVERLAP>
5.074

> <PUBCHEM_SHAPE_FINGERPRINT>
12423570 1 14445468308079012113
12716758 59 18261664982819819278
13024252 1 16271924887400582792
14614273 12 18272378559432530868
16945 1 18269288867043878711
18185500 45 18268430135614840802
21040471 1 18192715776493256672
23552423 10 18200032974937082450
241688 4 18051694334790937152
2748010 2 18338796844009505742
5084963 1 17538583388067801352

> <PUBCHEM_SHAPE_MULTIPOLES>
198.85
3.22
2.19
0.77
2.33
0.24
-0.02
0.05
0.33
-0.89
-0.07
-0.13
-0.19
-0.28

> <PUBCHEM_SHAPE_SELFOVERLAP>
400.726

> <PUBCHEM_SHAPE_VOLUME>
115.9

> <PUBCHEM_COORDINATE_TYPE>
2
5
10

$$$$

