4602
  -OEChem-06261200143D

 28 29  0     0  0  0  0  0  0999 V2000
   -2.8646    2.1693   -0.5269 O   0  0  0  0  0  0  0  0  0  0  0  0
   -0.4920    1.6406    0.5186 O   0  0  0  0  0  0  0  0  0  0  0  0
    5.7925    0.1325   -0.0092 O   0  0  0  0  0  0  0  0  0  0  0  0
    0.2821   -0.4881   -0.0933 N   0  0  0  0  0  0  0  0  0  0  0  0
   -2.0817   -0.0074    0.1091 C   0  0  0  0  0  0  0  0  0  0  0  0
    1.6896   -0.3293   -0.0711 C   0  0  0  0  0  0  0  0  0  0  0  0
   -0.7062    0.4635    0.1907 C   0  0  0  0  0  0  0  0  0  0  0  0
   -3.1153    0.8593   -0.2466 C   0  0  0  0  0  0  0  0  0  0  0  0
   -2.3596   -1.3444    0.3936 C   0  0  0  0  0  0  0  0  0  0  0  0
    2.2263    0.9010    0.2667 C   0  0  0  0  0  0  0  0  0  0  0  0
    2.4962   -1.4084   -0.3894 C   0  0  0  0  0  0  0  0  0  0  0  0
   -4.4266    0.3887   -0.3180 C   0  0  0  0  0  0  0  0  0  0  0  0
    3.6122    1.0573    0.2869 C   0  0  0  0  0  0  0  0  0  0  0  0
    3.8822   -1.2522   -0.3692 C   0  0  0  0  0  0  0  0  0  0  0  0
   -3.6709   -1.8147    0.3224 C   0  0  0  0  0  0  0  0  0  0  0  0
    4.4403   -0.0193   -0.0309 C   0  0  0  0  0  0  0  0  0  0  0  0
   -4.7044   -0.9482   -0.0333 C   0  0  0  0  0  0  0  0  0  0  0  0
   -0.0160   -1.4132   -0.3916 H   0  0  0  0  0  0  0  0  0  0  0  0
   -1.5943   -2.0463    0.7119 H   0  0  0  0  0  0  0  0  0  0  0  0
    1.6546    1.7798    0.5245 H   0  0  0  0  0  0  0  0  0  0  0  0
    2.0721   -2.3729   -0.6541 H   0  0  0  0  0  0  0  0  0  0  0  0
   -5.2418    1.0527   -0.5930 H   0  0  0  0  0  0  0  0  0  0  0  0
    4.0358    2.0224    0.5522 H   0  0  0  0  0  0  0  0  0  0  0  0
    4.5220   -2.0946   -0.6174 H   0  0  0  0  0  0  0  0  0  0  0  0
   -3.8892   -2.8535    0.5525 H   0  0  0  0  0  0  0  0  0  0  0  0
   -5.7256   -1.3142   -0.0865 H   0  0  0  0  0  0  0  0  0  0  0  0
   -3.7009    2.6118   -0.7520 H   0  0  0  0  0  0  0  0  0  0  0  0
    6.0028    1.0474    0.2455 H   0  0  0  0  0  0  0  0  0  0  0  0
  1  8  1  0  0  0  0
  1 27  1  0  0  0  0
  2  7  2  0  0  0  0
  3 16  1  0  0  0  0
  3 28  1  0  0  0  0
  4  6  1  0  0  0  0
  4  7  1  0  0  0  0
  4 18  1  0  0  0  0
  5  7  1  0  0  0  0
  5  8  1  0  0  0  0
  5  9  2  0  0  0  0
  6 10  2  0  0  0  0
  6 11  1  0  0  0  0
  8 12  2  0  0  0  0
  9 15  1  0  0  0  0
  9 19  1  0  0  0  0
 10 13  1  0  0  0  0
 10 20  1  0  0  0  0
 11 14  2  0  0  0  0
 11 21  1  0  0  0  0
 12 17  1  0  0  0  0
 12 22  1  0  0  0  0
 13 16  2  0  0  0  0
 13 23  1  0  0  0  0
 14 16  1  0  0  0  0
 14 24  1  0  0  0  0
 15 17  2  0  0  0  0
 15 25  1  0  0  0  0
 17 26  1  0  0  0  0
M  END
> <PUBCHEM_COMPOUND_CID>
4602

> <PUBCHEM_CONFORMER_RMSD>
0.6

> <PUBCHEM_CONFORMER_DIVERSEORDER>
2
4
1
5
3

> <PUBCHEM_MMFF94_PARTIAL_CHARGES>
28
1 -0.53
10 -0.15
11 -0.15
12 -0.15
13 -0.15
14 -0.15
15 -0.15
16 0.08
17 -0.15
18 0.37
19 0.15
2 -0.57
20 0.15
21 0.15
22 0.15
23 0.15
24 0.15
25 0.15
26 0.15
27 0.45
28 0.45
3 -0.53
4 -0.55
5 0.09
6 0.12
7 0.54
8 0.08
9 -0.15

> <PUBCHEM_EFFECTIVE_ROTOR_COUNT>
3

> <PUBCHEM_PHARMACOPHORE_FEATURES>
6
1 1 donor
1 2 acceptor
1 3 donor
1 4 donor
6 5 8 9 12 15 17 rings
6 6 10 11 13 14 16 rings

> <PUBCHEM_HEAVY_ATOM_COUNT>
17

> <PUBCHEM_ATOM_DEF_STEREO_COUNT>
0

> <PUBCHEM_ATOM_UDEF_STEREO_COUNT>
0

> <PUBCHEM_BOND_DEF_STEREO_COUNT>
0

> <PUBCHEM_BOND_UDEF_STEREO_COUNT>
0

> <PUBCHEM_ISOTOPIC_ATOM_COUNT>
0

> <PUBCHEM_COMPONENT_COUNT>
1

> <PUBCHEM_CACTVS_TAUTO_COUNT>
14

> <PUBCHEM_CONFORMER_ID>
000011FA00000002

> <PUBCHEM_MMFF94_ENERGY>
54.5799

> <PUBCHEM_FEATURE_SELFOVERLAP>
30.446

> <PUBCHEM_SHAPE_FINGERPRINT>
10 15 18263095340632653760
10014705 185 18059576923019654837
10608611 8 18410015441892790144
10680689 15 18201431493571314465
11615757 297 17312820459383445578
12107183 9 17623862626862787160
12236239 1 16989128655724429378
13167823 11 18201723972259895650
13296908 3 18408322189791099203
14252887 29 17095514111415765014
14386348 63 18334574633364606339
15196674 1 18409729599124217518
15375358 24 18409729564537807750
15961568 22 17702945812772718060
17834072 33 18201153265843178300
17834074 16 18409729560284843583
18186145 218 17988931075825209759
19141452 34 18260825952632738367
19489759 90 17989210347446748408
1986462 14 18343020012426759429
200 152 17822012016489104939
20279233 1 18410287017012101002
20645477 56 18271526498335772773
20645477 70 17968656141982187878
20871999 31 18341900714190846149
21065201 7 18202006555174287514
21079973 296 18341048536401568299
21267235 1 18409720751333371182
221490 88 18268424638045847346
22485316 2 18410293613997491123
2297311 6 18410283705739788173
23402539 116 18131075921799877974
23402655 69 18334013921500440556
23557571 272 18410289237410070509
23559900 14 18410579487162975408
26918003 58 18409168805175657762
2871803 45 18412546517660027962
3268164 11 17418103126218198999
3545911 37 18411418422971772764
4214541 1 18411418440246788845
4921388 177 16773505582528293915
5104073 3 18335421317800932258
542803 24 16845570915875515206
573450 72 17988093277929395706
69090 78 18335423452220602295
77779 3 18410291419263603318
9709674 26 18409724088496930855

> <PUBCHEM_SHAPE_MULTIPOLES>
327.26
11.11
1.73
0.68
4.79
0.13
0
-1.4
-0.57
-0.98
-0.02
-0.07
0
0.72

> <PUBCHEM_SHAPE_SELFOVERLAP>
710.716

> <PUBCHEM_SHAPE_VOLUME>
177.8

> <PUBCHEM_COORDINATE_TYPE>
2
5
10

$$$$

