17396007
  -OEChem-06241222532D

 51 55  0     1  0  0  0  0  0999 V2000
    5.2163   -4.0099    0.0000 O   0  0  0  0  0  0  0  0  0  0  0  0
    4.5390   -0.3545    0.0000 O   0  0  0  0  0  0  0  0  0  0  0  0
    2.8070   -0.3545    0.0000 O   0  0  0  0  0  0  0  0  0  0  0  0
    8.0031    0.6455    0.0000 O   0  0  0  0  0  0  0  0  0  0  0  0
    5.4050    2.1455    0.0000 N   0  0  0  0  0  0  0  0  0  0  0  0
    7.1371    2.1455    0.0000 N   0  0  0  0  0  0  0  0  0  0  0  0
    3.6730   -1.8545    0.0000 C   0  0  0  0  0  0  0  0  0  0  0  0
    4.5092   -3.3028    0.0000 C   0  0  0  0  0  0  0  0  0  0  0  0
    2.9819   -3.7380    0.0000 C   0  0  3  0  0  0  0  0  0  0  0  0
    2.8368   -3.3028    0.0000 C   0  0  3  0  0  0  0  0  0  0  0  0
    4.5092   -2.3373    0.0000 C   0  0  0  0  0  0  0  0  0  0  0  0
    2.8368   -2.3373    0.0000 C   0  0  0  0  0  0  0  0  0  0  0  0
    2.9819   -2.6926    0.0000 C   0  0  0  0  0  0  0  0  0  0  0  0
    3.6730   -3.6056    0.0000 C   0  0  0  0  0  0  0  0  0  0  0  0
    3.8876   -4.2148    0.0000 C   0  0  0  0  0  0  0  0  0  0  0  0
    2.0000   -3.7856    0.0000 C   0  0  0  0  0  0  0  0  0  0  0  0
    3.6730   -0.8545    0.0000 C   0  0  0  0  0  0  0  0  0  0  0  0
    4.5390    0.6455    0.0000 C   0  0  0  0  0  0  0  0  0  0  0  0
    5.4050    1.1455    0.0000 C   0  0  0  0  0  0  0  0  0  0  0  0
    6.2711    0.6455    0.0000 C   0  0  0  0  0  0  0  0  0  0  0  0
    6.2711    2.6455    0.0000 C   0  0  0  0  0  0  0  0  0  0  0  0
    7.1371    1.1455    0.0000 C   0  0  0  0  0  0  0  0  0  0  0  0
    6.2550    3.6870    0.0000 C   0  0  0  0  0  0  0  0  0  0  0  0
    8.0471    2.6523    0.0000 C   0  0  0  0  0  0  0  0  0  0  0  0
    8.0551    3.6939    0.0000 C   0  0  0  0  0  0  0  0  0  0  0  0
    7.1530    4.2148    0.0000 C   0  0  0  0  0  0  0  0  0  0  0  0
    8.9231    4.1906    0.0000 C   0  0  0  0  0  0  0  0  0  0  0  0
    2.8478   -4.3433    0.0000 H   0  0  0  0  0  0  0  0  0  0  0  0
    2.8912   -3.9204    0.0000 H   0  0  0  0  0  0  0  0  0  0  0  0
    5.1198   -2.4450    0.0000 H   0  0  0  0  0  0  0  0  0  0  0  0
    4.7212   -1.7547    0.0000 H   0  0  0  0  0  0  0  0  0  0  0  0
    2.6383   -2.1766    0.0000 H   0  0  0  0  0  0  0  0  0  0  0  0
    2.3885   -2.8722    0.0000 H   0  0  0  0  0  0  0  0  0  0  0  0
    2.6247   -1.7547    0.0000 H   0  0  0  0  0  0  0  0  0  0  0  0
    2.2262   -2.4450    0.0000 H   0  0  0  0  0  0  0  0  0  0  0  0
    3.5782   -4.7520    0.0000 H   0  0  0  0  0  0  0  0  0  0  0  0
    4.4127   -4.5443    0.0000 H   0  0  0  0  0  0  0  0  0  0  0  0
    3.3030   -4.1031    0.0000 H   0  0  0  0  0  0  0  0  0  0  0  0
    4.0430   -4.1031    0.0000 H   0  0  0  0  0  0  0  0  0  0  0  0
    1.5188   -3.3947    0.0000 H   0  0  0  0  0  0  0  0  0  0  0  0
    1.8068   -4.3748    0.0000 H   0  0  0  0  0  0  0  0  0  0  0  0
    5.8152   -3.8495    0.0000 H   0  0  0  0  0  0  0  0  0  0  0  0
    4.3270    1.2281    0.0000 H   0  0  0  0  0  0  0  0  0  0  0  0
    3.9284    0.5378    0.0000 H   0  0  0  0  0  0  0  0  0  0  0  0
    6.2711    0.0255    0.0000 H   0  0  0  0  0  0  0  0  0  0  0  0
    5.7145    3.9908    0.0000 H   0  0  0  0  0  0  0  0  0  0  0  0
    8.5804    2.3362    0.0000 H   0  0  0  0  0  0  0  0  0  0  0  0
    7.1506    4.8347    0.0000 H   0  0  0  0  0  0  0  0  0  0  0  0
    9.2310    3.6525    0.0000 H   0  0  0  0  0  0  0  0  0  0  0  0
    9.4612    4.4985    0.0000 H   0  0  0  0  0  0  0  0  0  0  0  0
    8.6151    4.7287    0.0000 H   0  0  0  0  0  0  0  0  0  0  0  0
  1  8  1  0  0  0  0
  1 42  1  0  0  0  0
  2 17  1  0  0  0  0
  2 18  1  0  0  0  0
  3 17  2  0  0  0  0
  4 22  2  0  0  0  0
  5 19  1  0  0  0  0
  5 21  2  0  0  0  0
  6 21  1  0  0  0  0
  6 22  1  0  0  0  0
  6 24  1  0  0  0  0
  7 11  1  0  0  0  0
  7 12  1  0  0  0  0
  7 13  1  0  0  0  0
  7 17  1  0  0  0  0
  8 11  1  0  0  0  0
  8 14  1  0  0  0  0
  8 15  1  0  0  0  0
  9 13  1  0  0  0  0
  9 15  1  0  0  0  0
  9 16  1  0  0  0  0
  9 28  1  0  0  0  0
 10 12  1  0  0  0  0
 10 14  1  0  0  0  0
 10 16  1  0  0  0  0
 10 29  1  0  0  0  0
 11 30  1  0  0  0  0
 11 31  1  0  0  0  0
 12 34  1  0  0  0  0
 12 35  1  0  0  0  0
 13 32  1  0  0  0  0
 13 33  1  0  0  0  0
 14 38  1  0  0  0  0
 14 39  1  0  0  0  0
 15 36  1  0  0  0  0
 15 37  1  0  0  0  0
 16 40  1  0  0  0  0
 16 41  1  0  0  0  0
 18 19  1  0  0  0  0
 18 43  1  0  0  0  0
 18 44  1  0  0  0  0
 19 20  2  0  0  0  0
 20 22  1  0  0  0  0
 20 45  1  0  0  0  0
 21 23  1  0  0  0  0
 23 26  2  0  0  0  0
 23 46  1  0  0  0  0
 24 25  2  0  0  0  0
 24 47  1  0  0  0  0
 25 26  1  0  0  0  0
 25 27  1  0  0  0  0
 26 48  1  0  0  0  0
 27 49  1  0  0  0  0
 27 50  1  0  0  0  0
 27 51  1  0  0  0  0
M  END
> <PUBCHEM_COMPOUND_CID>
17396007

> <PUBCHEM_COMPOUND_CANONICALIZED>
1

> <PUBCHEM_CACTVS_COMPLEXITY>
836

> <PUBCHEM_CACTVS_HBOND_ACCEPTOR>
5

> <PUBCHEM_CACTVS_HBOND_DONOR>
1

> <PUBCHEM_CACTVS_ROTATABLE_BOND>
4

> <PUBCHEM_CACTVS_SUBSKEYS>
AAADceB7OAAAAAAAAAAAAAAAAAAAAAAAAAAwYMGCAAAAAACAAAAAHgAACAAAD0zhgAYDCAMABgCoAif2fACAAAEgAgAJCAEYAFgKBBIAKQADUAAEBgCIoUPKyPCPAAAAAAAAAAAAAAYAAAAAAAAAAAAAAA==

> <PUBCHEM_IUPAC_OPENEYE_NAME>
(7-methyl-4-oxo-pyrido[1,2-a]pyrimidin-2-yl)methyl 3-hydroxyadamantane-1-carboxylate

> <PUBCHEM_IUPAC_CAS_NAME>
3-hydroxy-1-adamantanecarboxylic acid (7-methyl-4-oxo-2-pyrido[1,2-a]pyrimidinyl)methyl ester

> <PUBCHEM_IUPAC_NAME>
(7-methyl-4-oxopyrido[1,2-a]pyrimidin-2-yl)methyl 3-hydroxyadamantane-1-carboxylate

> <PUBCHEM_IUPAC_SYSTEMATIC_NAME>
(7-methyl-4-oxidanylidene-pyrido[1,2-a]pyrimidin-2-yl)methyl 3-oxidanyladamantane-1-carboxylate

> <PUBCHEM_IUPAC_TRADITIONAL_NAME>
3-hydroxyadamantane-1-carboxylic acid (4-keto-7-methyl-pyrido[1,2-a]pyrimidin-2-yl)methyl ester

> <PUBCHEM_IUPAC_INCHI>
InChI=1S/C21H24N2O4/c1-13-2-3-17-22-16(5-18(24)23(17)10-13)11-27-19(25)20-6-14-4-15(7-20)9-21(26,8-14)12-20/h2-3,5,10,14-15,26H,4,6-9,11-12H2,1H3

> <PUBCHEM_IUPAC_INCHIKEY>
VDRAZPSJSFPNGH-UHFFFAOYSA-N

> <PUBCHEM_XLOGP3_AA>
0.9

> <PUBCHEM_EXACT_MASS>
368.173607

> <PUBCHEM_MOLECULAR_FORMULA>
C21H24N2O4

> <PUBCHEM_MOLECULAR_WEIGHT>
368.42626

> <PUBCHEM_OPENEYE_CAN_SMILES>
CC1=CN2C(=NC(=CC2=O)COC(=O)C34CC5CC(C3)CC(C5)(C4)O)C=C1

> <PUBCHEM_OPENEYE_ISO_SMILES>
CC1=CN2C(=NC(=CC2=O)COC(=O)C34CC5CC(C3)CC(C5)(C4)O)C=C1

> <PUBCHEM_CACTVS_TPSA>
79.2

> <PUBCHEM_MONOISOTOPIC_WEIGHT>
368.173607

> <PUBCHEM_TOTAL_CHARGE>
0

> <PUBCHEM_HEAVY_ATOM_COUNT>
27

> <PUBCHEM_ATOM_DEF_STEREO_COUNT>
0

> <PUBCHEM_ATOM_UDEF_STEREO_COUNT>
2

> <PUBCHEM_BOND_DEF_STEREO_COUNT>
0

> <PUBCHEM_BOND_UDEF_STEREO_COUNT>
0

> <PUBCHEM_ISOTOPIC_ATOM_COUNT>
0

> <PUBCHEM_COMPONENT_COUNT>
1

> <PUBCHEM_CACTVS_TAUTO_COUNT>
1

> <PUBCHEM_COORDINATE_TYPE>
1
5
255

> <PUBCHEM_BONDANNOTATIONS>
10  16  3
19  20  8
20  22  8
21  23  8
23  26  8
24  25  8
25  26  8
5  19  8
5  21  8
6  21  8
6  22  8
6  24  8
9  16  3

$$$$

