17396241
  -OEChem-06241222552D

 44 47  0     1  0  0  0  0  0999 V2000
    6.8671    1.9806    0.0000 O   0  0  0  0  0  0  0  0  0  0  0  0
    4.3260    2.5684    0.0000 O   0  0  0  0  0  0  0  0  0  0  0  0
    2.5369   -2.5194    0.0000 O   0  0  0  0  0  0  0  0  0  0  0  0
    2.5369   -0.5194    0.0000 O   0  0  0  0  0  0  0  0  0  0  0  0
    6.0010    0.4806    0.0000 N   0  0  0  0  0  0  0  0  0  0  0  0
    6.8671   -1.0194    0.0000 N   0  0  0  0  0  0  0  0  0  0  0  0
    6.0010   -0.5194    0.0000 C   0  0  3  0  0  0  0  0  0  0  0  0
    5.1350   -1.0194    0.0000 C   0  0  0  0  0  0  0  0  0  0  0  0
    5.1350    0.9806    0.0000 C   0  0  0  0  0  0  0  0  0  0  0  0
    7.7331   -0.5194    0.0000 C   0  0  0  0  0  0  0  0  0  0  0  0
    6.8671    0.9806    0.0000 C   0  0  0  0  0  0  0  0  0  0  0  0
    7.7331    0.4806    0.0000 C   0  0  0  0  0  0  0  0  0  0  0  0
    5.1350    1.9806    0.0000 C   0  0  0  0  0  0  0  0  0  0  0  0
    4.2690   -0.5194    0.0000 C   0  0  0  0  0  0  0  0  0  0  0  0
    5.1350   -2.0194    0.0000 C   0  0  0  0  0  0  0  0  0  0  0  0
    8.6270   -1.0541    0.0000 C   0  0  0  0  0  0  0  0  0  0  0  0
    8.6270    1.0152    0.0000 C   0  0  0  0  0  0  0  0  0  0  0  0
    3.4030   -1.0194    0.0000 C   0  0  0  0  0  0  0  0  0  0  0  0
    4.2690   -2.5194    0.0000 C   0  0  0  0  0  0  0  0  0  0  0  0
    9.5331   -0.5402    0.0000 C   0  0  0  0  0  0  0  0  0  0  0  0
    9.5331    0.5014    0.0000 C   0  0  0  0  0  0  0  0  0  0  0  0
    3.4030   -2.0194    0.0000 C   0  0  0  0  0  0  0  0  0  0  0  0
    5.9440    2.5684    0.0000 C   0  0  0  0  0  0  0  0  0  0  0  0
    5.6350    3.5194    0.0000 C   0  0  0  0  0  0  0  0  0  0  0  0
    4.6350    3.5194    0.0000 C   0  0  0  0  0  0  0  0  0  0  0  0
    2.5369   -3.5194    0.0000 C   0  0  0  0  0  0  0  0  0  0  0  0
    5.4641   -0.2094    0.0000 H   0  0  0  0  0  0  0  0  0  0  0  0
    6.8671   -1.6394    0.0000 H   0  0  0  0  0  0  0  0  0  0  0  0
    4.5244    1.0882    0.0000 H   0  0  0  0  0  0  0  0  0  0  0  0
    4.9230    0.3980    0.0000 H   0  0  0  0  0  0  0  0  0  0  0  0
    4.2690    0.1006    0.0000 H   0  0  0  0  0  0  0  0  0  0  0  0
    5.6720   -2.3294    0.0000 H   0  0  0  0  0  0  0  0  0  0  0  0
    8.6199   -1.6740    0.0000 H   0  0  0  0  0  0  0  0  0  0  0  0
    8.6199    1.6352    0.0000 H   0  0  0  0  0  0  0  0  0  0  0  0
    4.2690   -3.1394    0.0000 H   0  0  0  0  0  0  0  0  0  0  0  0
   10.0688   -0.8523    0.0000 H   0  0  0  0  0  0  0  0  0  0  0  0
   10.0688    0.8135    0.0000 H   0  0  0  0  0  0  0  0  0  0  0  0
    6.5337    2.3768    0.0000 H   0  0  0  0  0  0  0  0  0  0  0  0
    5.9994    4.0210    0.0000 H   0  0  0  0  0  0  0  0  0  0  0  0
    4.2706    4.0210    0.0000 H   0  0  0  0  0  0  0  0  0  0  0  0
    2.0000   -0.8294    0.0000 H   0  0  0  0  0  0  0  0  0  0  0  0
    1.9169   -3.5194    0.0000 H   0  0  0  0  0  0  0  0  0  0  0  0
    2.5369   -4.1394    0.0000 H   0  0  0  0  0  0  0  0  0  0  0  0
    3.1569   -3.5194    0.0000 H   0  0  0  0  0  0  0  0  0  0  0  0
  1 11  2  0  0  0  0
  2 13  1  0  0  0  0
  2 25  1  0  0  0  0
  3 22  1  0  0  0  0
  3 26  1  0  0  0  0
  4 18  1  0  0  0  0
  4 41  1  0  0  0  0
  5  7  1  0  0  0  0
  5  9  1  0  0  0  0
  5 11  1  0  0  0  0
  6  7  1  0  0  0  0
  6 10  1  0  0  0  0
  6 28  1  0  0  0  0
  7  8  1  0  0  0  0
  7 27  1  0  0  0  0
  8 14  2  0  0  0  0
  8 15  1  0  0  0  0
  9 13  1  0  0  0  0
  9 29  1  0  0  0  0
  9 30  1  0  0  0  0
 10 12  1  0  0  0  0
 10 16  2  0  0  0  0
 11 12  1  0  0  0  0
 12 17  2  0  0  0  0
 13 23  2  0  0  0  0
 14 18  1  0  0  0  0
 14 31  1  0  0  0  0
 15 19  2  0  0  0  0
 15 32  1  0  0  0  0
 16 20  1  0  0  0  0
 16 33  1  0  0  0  0
 17 21  1  0  0  0  0
 17 34  1  0  0  0  0
 18 22  2  0  0  0  0
 19 22  1  0  0  0  0
 19 35  1  0  0  0  0
 20 21  2  0  0  0  0
 20 36  1  0  0  0  0
 21 37  1  0  0  0  0
 23 24  1  0  0  0  0
 23 38  1  0  0  0  0
 24 25  2  0  0  0  0
 24 39  1  0  0  0  0
 25 40  1  0  0  0  0
 26 42  1  0  0  0  0
 26 43  1  0  0  0  0
 26 44  1  0  0  0  0
M  END
> <PUBCHEM_COMPOUND_CID>
17396241

> <PUBCHEM_COMPOUND_CANONICALIZED>
1

> <PUBCHEM_CACTVS_COMPLEXITY>
502

> <PUBCHEM_CACTVS_HBOND_ACCEPTOR>
5

> <PUBCHEM_CACTVS_HBOND_DONOR>
2

> <PUBCHEM_CACTVS_ROTATABLE_BOND>
4

> <PUBCHEM_CACTVS_SUBSKEYS>
AAADceB7OAAAAAAAAAAAAAAAAAAAASAAAAA8YIAAAAAAAACx0AAAHgAQCAAADAzhmAYzxoPABkCIAq1S0ACCCAAlIgAIiIGO7MiPJjrG9buHeavs1xPb+ee42RKOIAABAAACQABAAAIAAASAAAAAAAAAAA==

> <PUBCHEM_IUPAC_OPENEYE_NAME>
3-(2-furylmethyl)-2-(3-hydroxy-4-methoxy-phenyl)-1,2-dihydroquinazolin-4-one

> <PUBCHEM_IUPAC_CAS_NAME>
3-(2-furanylmethyl)-2-(3-hydroxy-4-methoxyphenyl)-1,2-dihydroquinazolin-4-one

> <PUBCHEM_IUPAC_NAME>
3-(furan-2-ylmethyl)-2-(3-hydroxy-4-methoxyphenyl)-1,2-dihydroquinazolin-4-one

> <PUBCHEM_IUPAC_SYSTEMATIC_NAME>
3-(furan-2-ylmethyl)-2-(4-methoxy-3-oxidanyl-phenyl)-1,2-dihydroquinazolin-4-one

> <PUBCHEM_IUPAC_TRADITIONAL_NAME>
3-(2-furfuryl)-2-(3-hydroxy-4-methoxy-phenyl)-1,2-dihydroquinazolin-4-one

> <PUBCHEM_IUPAC_INCHI>
InChI=1S/C20H18N2O4/c1-25-18-9-8-13(11-17(18)23)19-21-16-7-3-2-6-15(16)20(24)22(19)12-14-5-4-10-26-14/h2-11,19,21,23H,12H2,1H3

> <PUBCHEM_IUPAC_INCHIKEY>
FMTUBRMGGATHLC-UHFFFAOYSA-N

> <PUBCHEM_XLOGP3_AA>
3

> <PUBCHEM_EXACT_MASS>
350.126657

> <PUBCHEM_MOLECULAR_FORMULA>
C20H18N2O4

> <PUBCHEM_MOLECULAR_WEIGHT>
350.36792

> <PUBCHEM_OPENEYE_CAN_SMILES>
COC1=C(C=C(C=C1)C2NC3=CC=CC=C3C(=O)N2CC4=CC=CO4)O

> <PUBCHEM_OPENEYE_ISO_SMILES>
COC1=C(C=C(C=C1)C2NC3=CC=CC=C3C(=O)N2CC4=CC=CO4)O

> <PUBCHEM_CACTVS_TPSA>
74.9

> <PUBCHEM_MONOISOTOPIC_WEIGHT>
350.126657

> <PUBCHEM_TOTAL_CHARGE>
0

> <PUBCHEM_HEAVY_ATOM_COUNT>
26

> <PUBCHEM_ATOM_DEF_STEREO_COUNT>
0

> <PUBCHEM_ATOM_UDEF_STEREO_COUNT>
1

> <PUBCHEM_BOND_DEF_STEREO_COUNT>
0

> <PUBCHEM_BOND_UDEF_STEREO_COUNT>
0

> <PUBCHEM_ISOTOPIC_ATOM_COUNT>
0

> <PUBCHEM_COMPONENT_COUNT>
1

> <PUBCHEM_CACTVS_TAUTO_COUNT>
12

> <PUBCHEM_COORDINATE_TYPE>
1
5
255

> <PUBCHEM_BONDANNOTATIONS>
10  12  8
10  16  8
12  17  8
13  23  8
14  18  8
15  19  8
16  20  8
17  21  8
18  22  8
19  22  8
2  13  8
2  25  8
20  21  8
23  24  8
24  25  8
7  8  3
8  14  8
8  15  8

$$$$

