17395679
  -OEChem-06241222513D

 43 46  0     0  0  0  0  0  0999 V2000
   -3.6395   -3.8930    0.5706 S   0  0  0  0  0  0  0  0  0  0  0  0
    1.6149    1.5813   -0.5587 O   0  0  0  0  0  0  0  0  0  0  0  0
   -0.5970    2.6820    0.4810 O   0  0  0  0  0  0  0  0  0  0  0  0
   -4.4000    0.7874   -0.3816 N   0  0  0  0  0  0  0  0  0  0  0  0
   -1.9869    1.0513   -0.4981 N   0  0  0  0  0  0  0  0  0  0  0  0
   -5.5088    1.3348    0.1447 N   0  0  0  0  0  0  0  0  0  0  0  0
   -4.5220   -0.3959   -1.2020 C   0  0  0  0  0  0  0  0  0  0  0  0
   -3.2519    1.4491   -0.0582 C   0  0  0  0  0  0  0  0  0  0  0  0
   -4.4251   -1.6361   -0.3727 C   0  0  0  0  0  0  0  0  0  0  0  0
    4.9225    0.3027    0.3981 C   0  0  0  0  0  0  0  0  0  0  0  0
    4.9941   -0.8571   -0.4096 C   0  0  0  0  0  0  0  0  0  0  0  0
   -3.6365    2.5030    0.7342 C   0  0  0  0  0  0  0  0  0  0  0  0
    2.7176    0.7850   -0.5097 C   0  0  0  0  0  0  0  0  0  0  0  0
    3.7771    1.1130    0.3365 C   0  0  0  0  0  0  0  0  0  0  0  0
    3.9181   -1.1722   -1.2554 C   0  0  0  0  0  0  0  0  0  0  0  0
    0.3718    0.9512   -0.8647 C   0  0  0  0  0  0  0  0  0  0  0  0
   -5.0362    2.3824    0.8252 C   0  0  0  0  0  0  0  0  0  0  0  0
   -0.7832    1.6816   -0.2035 C   0  0  0  0  0  0  0  0  0  0  0  0
    2.7880   -0.3555   -1.3041 C   0  0  0  0  0  0  0  0  0  0  0  0
   -5.3151   -1.9496    0.6949 C   0  0  0  0  0  0  0  0  0  0  0  0
    5.9981    0.6177    1.2443 C   0  0  0  0  0  0  0  0  0  0  0  0
   -3.4652   -2.6084   -0.5483 C   0  0  0  0  0  0  0  0  0  0  0  0
    6.1395   -1.6675   -0.3479 C   0  0  0  0  0  0  0  0  0  0  0  0
    7.1285   -0.1986    1.2929 C   0  0  0  0  0  0  0  0  0  0  0  0
    7.1991   -1.3389    0.4981 C   0  0  0  0  0  0  0  0  0  0  0  0
   -5.0019   -3.1497    1.2942 C   0  0  0  0  0  0  0  0  0  0  0  0
   -5.4972   -0.3569   -1.7033 H   0  0  0  0  0  0  0  0  0  0  0  0
   -3.7636   -0.3621   -1.9907 H   0  0  0  0  0  0  0  0  0  0  0  0
   -3.0122    3.2577    1.1889 H   0  0  0  0  0  0  0  0  0  0  0  0
   -1.9573    0.2187   -1.0798 H   0  0  0  0  0  0  0  0  0  0  0  0
    3.7061    2.0084    0.9514 H   0  0  0  0  0  0  0  0  0  0  0  0
    3.9545   -2.0558   -1.8896 H   0  0  0  0  0  0  0  0  0  0  0  0
    0.3382   -0.0806   -0.4897 H   0  0  0  0  0  0  0  0  0  0  0  0
    0.2197    0.9653   -1.9500 H   0  0  0  0  0  0  0  0  0  0  0  0
   -5.7314    3.0142    1.3591 H   0  0  0  0  0  0  0  0  0  0  0  0
    1.9980   -0.6309   -1.9966 H   0  0  0  0  0  0  0  0  0  0  0  0
   -6.1500   -1.3383    1.0125 H   0  0  0  0  0  0  0  0  0  0  0  0
    5.9647    1.5042    1.8743 H   0  0  0  0  0  0  0  0  0  0  0  0
   -2.6671   -2.6300   -1.2775 H   0  0  0  0  0  0  0  0  0  0  0  0
    6.2162   -2.5637   -0.9600 H   0  0  0  0  0  0  0  0  0  0  0  0
    7.9537    0.0564    1.9516 H   0  0  0  0  0  0  0  0  0  0  0  0
    8.0794   -1.9740    0.5364 H   0  0  0  0  0  0  0  0  0  0  0  0
   -5.5089   -3.6262    2.1213 H   0  0  0  0  0  0  0  0  0  0  0  0
  1 22  1  0  0  0  0
  1 26  1  0  0  0  0
  2 13  1  0  0  0  0
  2 16  1  0  0  0  0
  3 18  2  0  0  0  0
  4  6  1  0  0  0  0
  4  7  1  0  0  0  0
  4  8  1  0  0  0  0
  5  8  1  0  0  0  0
  5 18  1  0  0  0  0
  5 30  1  0  0  0  0
  6 17  2  0  0  0  0
  7  9  1  0  0  0  0
  7 27  1  0  0  0  0
  7 28  1  0  0  0  0
  8 12  2  0  0  0  0
  9 20  1  0  0  0  0
  9 22  2  0  0  0  0
 10 11  1  0  0  0  0
 10 14  1  0  0  0  0
 10 21  2  0  0  0  0
 11 15  1  0  0  0  0
 11 23  2  0  0  0  0
 12 17  1  0  0  0  0
 12 29  1  0  0  0  0
 13 14  2  0  0  0  0
 13 19  1  0  0  0  0
 14 31  1  0  0  0  0
 15 19  2  0  0  0  0
 15 32  1  0  0  0  0
 16 18  1  0  0  0  0
 16 33  1  0  0  0  0
 16 34  1  0  0  0  0
 17 35  1  0  0  0  0
 19 36  1  0  0  0  0
 20 26  2  0  0  0  0
 20 37  1  0  0  0  0
 21 24  1  0  0  0  0
 21 38  1  0  0  0  0
 22 39  1  0  0  0  0
 23 25  1  0  0  0  0
 23 40  1  0  0  0  0
 24 25  2  0  0  0  0
 24 41  1  0  0  0  0
 25 42  1  0  0  0  0
 26 43  1  0  0  0  0
M  END
> <PUBCHEM_COMPOUND_CID>
17395679

> <PUBCHEM_CONFORMER_RMSD>
1.2

> <PUBCHEM_CONFORMER_DIVERSEORDER>
1
135
151
55
48
35
41
170
171
78
65
58
20
154
40
97
98
157
51
86
57
142
29
25
18
68
117
126
116
158
85
164
42
71
70
115
114
100
9
155
27
31
28
72
69
130
73
133
53
90
64
81
49
149
93
106
63
168
7
59
107
46
152
75
80
163
139
138
4
112
43
129
21
150
169
95
99
119
79
2
141
134
101
167
60
76
121
34
38
162
110
66
26
127
160
92
11
24
15
87
165
123
56
91
161
104
156
3
23
8
113
128
74
83
84
103
140
44
36
17
131
12
166
13
50
137
148
62
109
153
125
52
145
16
111
102
82
120
146
108
136
118
159
96
124
22
30
39
19
94
33
144
77
32
14
54
61
47
89
147
5
10
6
122
88
132
105
143
67
37
45

> <PUBCHEM_MMFF94_PARTIAL_CHARGES>
37
1 -0.08
12 -0.15
13 0.08
14 -0.15
15 -0.15
16 0.34
17 0.14
18 0.57
19 -0.15
2 -0.36
20 -0.15
21 -0.15
22 -0.11
23 -0.15
24 -0.15
25 -0.15
26 -0.11
29 0.15
3 -0.57
30 0.37
31 0.15
32 0.15
35 0.15
36 0.15
37 0.15
38 0.15
39 0.15
4 0.31
40 0.15
41 0.15
42 0.15
43 0.15
5 -0.49
6 -0.71
7 0.44
8 -0.09
9 -0.18

> <PUBCHEM_EFFECTIVE_ROTOR_COUNT>
7

> <PUBCHEM_PHARMACOPHORE_FEATURES>
8
1 2 acceptor
1 3 acceptor
1 5 donor
1 6 acceptor
5 1 9 20 22 26 rings
5 4 6 8 12 17 rings
6 10 11 13 14 15 19 rings
6 10 11 21 23 24 25 rings

> <PUBCHEM_HEAVY_ATOM_COUNT>
26

> <PUBCHEM_ATOM_DEF_STEREO_COUNT>
0

> <PUBCHEM_ATOM_UDEF_STEREO_COUNT>
0

> <PUBCHEM_BOND_DEF_STEREO_COUNT>
0

> <PUBCHEM_BOND_UDEF_STEREO_COUNT>
0

> <PUBCHEM_ISOTOPIC_ATOM_COUNT>
0

> <PUBCHEM_COMPONENT_COUNT>
1

> <PUBCHEM_CACTVS_TAUTO_COUNT>
4

> <PUBCHEM_CONFORMER_ID>
01096FDF00000001

> <PUBCHEM_MMFF94_ENERGY>
62.4497

> <PUBCHEM_FEATURE_SELFOVERLAP>
40.629

> <PUBCHEM_SHAPE_FINGERPRINT>
10319688 45 18343303690722563741
10391435 84 18341345396309803480
10939801 23 18194118521998189998
11443803 9 17386284424659958833
11828532 37 17769087952807327771
12616971 3 17704061910946382100
12643181 29 18343026613828533455
14150023 24 18122901195684610633
14211702 104 18410570674138231174
14251751 18 18409727331238859322
14461889 52 18186529808839389394
14844126 61 18261112942336706231
14866123 147 18338506466657789267
15183329 4 14908186343826740986
15188451 53 18341054034049280623
15348495 7 18260552216743996832
15537594 2 17704072940379881730
15728490 51 18342741780999689632
17492 89 18196649593264530629
17627616 140 17844820359022163923
17780758 139 18409450284800913005
17913733 40 16515401872243422862
19611394 137 18187929444070439272
21623969 137 17603867810638661710
22061861 79 14333408969452561392
22122407 14 15936412255585306993
23428019 142 17275103877809679835
23559900 14 18336555910906821201
23572383 38 18260824929644467374
25122255 55 18412539890562361482
312425 54 18334857281194352208
3383291 50 18409727340800166643
392239 28 16588309345471554592
397830 11 18261399901881204792
4073 2 18335419080196660810
484985 159 18343016654654325659
5080951 261 18269578115964318430
5104073 3 18261390027271570704
531348 171 17273993487208648709
5364581 5 18114753620188861744
5486654 36 18340761568826395721
559249 180 18343021103912915997
6009941 240 18261957448196211105
6431902 208 18337113375770027423

> <PUBCHEM_SHAPE_MULTIPOLES>
512.24
20.05
3.72
1.19
20.31
2.02
-0.02
8.17
-5.47
-7.78
-1.05
0.44
0.23
0.75

> <PUBCHEM_SHAPE_SELFOVERLAP>
1110.768

> <PUBCHEM_SHAPE_VOLUME>
281

> <PUBCHEM_COORDINATE_TYPE>
2
5
10

$$$$

