47205201
  -OEChem-06241222582D

 33 34  0     0  0  0  0  0  0999 V2000
    2.0000   -2.5194    0.0000 Cl  0  0  0  0  0  0  0  0  0  0  0  0
    6.3301   -0.0194    0.0000 O   0  0  0  0  0  0  0  0  0  0  0  0
    2.8660   -1.0194    0.0000 O   0  0  0  0  0  0  0  0  0  0  0  0
    5.4641    1.4806    0.0000 N   0  0  0  0  0  0  0  0  0  0  0  0
    4.5981   -1.0194    0.0000 N   0  0  0  0  0  0  0  0  0  0  0  0
    5.5211    3.5684    0.0000 N   0  0  0  0  0  0  0  0  0  0  0  0
    5.8301    4.5194    0.0000 N   0  0  0  0  0  0  0  0  0  0  0  0
    6.3301    1.9806    0.0000 C   0  0  0  0  0  0  0  0  0  0  0  0
    6.3301    2.9806    0.0000 C   0  0  0  0  0  0  0  0  0  0  0  0
    4.5981   -0.0194    0.0000 C   0  0  0  0  0  0  0  0  0  0  0  0
    5.4641    0.4806    0.0000 C   0  0  0  0  0  0  0  0  0  0  0  0
    3.7320   -2.5194    0.0000 C   0  0  0  0  0  0  0  0  0  0  0  0
    3.7320   -1.5194    0.0000 C   0  0  0  0  0  0  0  0  0  0  0  0
    7.1391    3.5684    0.0000 C   0  0  0  0  0  0  0  0  0  0  0  0
    2.8660   -3.0194    0.0000 C   0  0  0  0  0  0  0  0  0  0  0  0
    4.5981   -3.0194    0.0000 C   0  0  0  0  0  0  0  0  0  0  0  0
    6.8301    4.5194    0.0000 C   0  0  0  0  0  0  0  0  0  0  0  0
    2.8660   -4.0194    0.0000 C   0  0  0  0  0  0  0  0  0  0  0  0
    4.5981   -4.0194    0.0000 C   0  0  0  0  0  0  0  0  0  0  0  0
    3.7320   -4.5194    0.0000 C   0  0  0  0  0  0  0  0  0  0  0  0
    6.5422    1.3980    0.0000 H   0  0  0  0  0  0  0  0  0  0  0  0
    6.9407    2.0882    0.0000 H   0  0  0  0  0  0  0  0  0  0  0  0
    4.3860    0.5632    0.0000 H   0  0  0  0  0  0  0  0  0  0  0  0
    3.9875   -0.1271    0.0000 H   0  0  0  0  0  0  0  0  0  0  0  0
    4.9272    1.7906    0.0000 H   0  0  0  0  0  0  0  0  0  0  0  0
    5.1350   -1.3294    0.0000 H   0  0  0  0  0  0  0  0  0  0  0  0
    7.7288    3.3768    0.0000 H   0  0  0  0  0  0  0  0  0  0  0  0
    4.9315    3.3768    0.0000 H   0  0  0  0  0  0  0  0  0  0  0  0
    5.1350   -2.7094    0.0000 H   0  0  0  0  0  0  0  0  0  0  0  0
    7.1946    5.0210    0.0000 H   0  0  0  0  0  0  0  0  0  0  0  0
    2.3291   -4.3294    0.0000 H   0  0  0  0  0  0  0  0  0  0  0  0
    5.1350   -4.3294    0.0000 H   0  0  0  0  0  0  0  0  0  0  0  0
    3.7320   -5.1394    0.0000 H   0  0  0  0  0  0  0  0  0  0  0  0
  1 15  1  0  0  0  0
  2 11  2  0  0  0  0
  3 13  2  0  0  0  0
  4  8  1  0  0  0  0
  4 11  1  0  0  0  0
  4 25  1  0  0  0  0
  5 10  1  0  0  0  0
  5 13  1  0  0  0  0
  5 26  1  0  0  0  0
  6  7  1  0  0  0  0
  6  9  1  0  0  0  0
  6 28  1  0  0  0  0
  7 17  2  0  0  0  0
  8  9  1  0  0  0  0
  8 21  1  0  0  0  0
  8 22  1  0  0  0  0
  9 14  2  0  0  0  0
 10 11  1  0  0  0  0
 10 23  1  0  0  0  0
 10 24  1  0  0  0  0
 12 13  1  0  0  0  0
 12 15  1  0  0  0  0
 12 16  2  0  0  0  0
 14 17  1  0  0  0  0
 14 27  1  0  0  0  0
 15 18  2  0  0  0  0
 16 19  1  0  0  0  0
 16 29  1  0  0  0  0
 17 30  1  0  0  0  0
 18 20  1  0  0  0  0
 18 31  1  0  0  0  0
 19 20  2  0  0  0  0
 19 32  1  0  0  0  0
 20 33  1  0  0  0  0
M  END
> <PUBCHEM_COMPOUND_CID>
47205201

> <PUBCHEM_COMPOUND_CANONICALIZED>
1

> <PUBCHEM_CACTVS_COMPLEXITY>
353

> <PUBCHEM_CACTVS_HBOND_ACCEPTOR>
3

> <PUBCHEM_CACTVS_HBOND_DONOR>
3

> <PUBCHEM_CACTVS_ROTATABLE_BOND>
5

> <PUBCHEM_CACTVS_SUBSKEYS>
AAADccBzsAAEAAAAAAAAAAAAAAAAAWAAAAAwAAAAAAAAAAABwAAAHgIYAAAADArBniQ8gJLjAACqAzV3UACSBAAkhwAYuaG4ZtgIYLKB1/GUpQhgngCIzYcYiACOAAAAAAABAAAAAAAAAAIAAAAAAAAAAA==

> <PUBCHEM_IUPAC_OPENEYE_NAME>
2-chloro-N-[2-oxo-2-(1H-pyrazol-5-ylmethylamino)ethyl]benzamide

> <PUBCHEM_IUPAC_CAS_NAME>
2-chloro-N-[2-oxo-2-(1H-pyrazol-5-ylmethylamino)ethyl]benzamide

> <PUBCHEM_IUPAC_NAME>
2-chloro-N-[2-oxo-2-(1H-pyrazol-5-ylmethylamino)ethyl]benzamide

> <PUBCHEM_IUPAC_SYSTEMATIC_NAME>
2-chloranyl-N-[2-oxidanylidene-2-(1H-pyrazol-5-ylmethylamino)ethyl]benzamide

> <PUBCHEM_IUPAC_TRADITIONAL_NAME>
2-chloro-N-[2-keto-2-(1H-pyrazol-5-ylmethylamino)ethyl]benzamide

> <PUBCHEM_IUPAC_INCHI>
InChI=1S/C13H13ClN4O2/c14-11-4-2-1-3-10(11)13(20)16-8-12(19)15-7-9-5-6-17-18-9/h1-6H,7-8H2,(H,15,19)(H,16,20)(H,17,18)

> <PUBCHEM_IUPAC_INCHIKEY>
AEFDQTOHNHMNEZ-UHFFFAOYSA-N

> <PUBCHEM_XLOGP3_AA>
1

> <PUBCHEM_EXACT_MASS>
292.072703

> <PUBCHEM_MOLECULAR_FORMULA>
C13H13ClN4O2

> <PUBCHEM_MOLECULAR_WEIGHT>
292.72092

> <PUBCHEM_OPENEYE_CAN_SMILES>
C1=CC=C(C(=C1)C(=O)NCC(=O)NCC2=CC=NN2)Cl

> <PUBCHEM_OPENEYE_ISO_SMILES>
C1=CC=C(C(=C1)C(=O)NCC(=O)NCC2=CC=NN2)Cl

> <PUBCHEM_CACTVS_TPSA>
86.9

> <PUBCHEM_MONOISOTOPIC_WEIGHT>
292.072703

> <PUBCHEM_TOTAL_CHARGE>
0

> <PUBCHEM_HEAVY_ATOM_COUNT>
20

> <PUBCHEM_ATOM_DEF_STEREO_COUNT>
0

> <PUBCHEM_ATOM_UDEF_STEREO_COUNT>
0

> <PUBCHEM_BOND_DEF_STEREO_COUNT>
0

> <PUBCHEM_BOND_UDEF_STEREO_COUNT>
0

> <PUBCHEM_ISOTOPIC_ATOM_COUNT>
0

> <PUBCHEM_COMPONENT_COUNT>
1

> <PUBCHEM_CACTVS_TAUTO_COUNT>
8

> <PUBCHEM_COORDINATE_TYPE>
1
5
255

> <PUBCHEM_BONDANNOTATIONS>
12  15  8
12  16  8
14  17  8
15  18  8
16  19  8
18  20  8
19  20  8
6  7  8
6  9  8
7  17  8
9  14  8

$$$$

