586296
  -OEChem-06241222463D

 27 28  0     1  0  0  0  0  0999 V2000
    0.5262   -2.0409    0.1618 O   0  0  0  0  0  0  0  0  0  0  0  0
    0.0424   -0.7115   -0.1154 C   0  0  1  0  0  0  0  0  0  0  0  0
    1.0797    0.3909    0.1824 C   0  0  0  0  0  0  0  0  0  0  0  0
    0.2640   -1.7482   -1.2132 C   0  0  0  0  0  0  0  0  0  0  0  0
    0.6445    1.6900   -0.5516 C   0  0  0  0  0  0  0  0  0  0  0  0
   -1.3764   -0.3159    0.1064 C   0  0  0  0  0  0  0  0  0  0  0  0
   -0.8110    2.0900   -0.2828 C   0  0  0  0  0  0  0  0  0  0  0  0
   -1.7838    0.9535   -0.6020 C   0  0  0  0  0  0  0  0  0  0  0  0
    2.5081    0.0421   -0.2866 C   0  0  0  0  0  0  0  0  0  0  0  0
    1.1483    0.6268    1.7084 C   0  0  0  0  0  0  0  0  0  0  0  0
   -2.2419   -0.9769    0.8926 C   0  0  0  0  0  0  0  0  0  0  0  0
   -0.5935   -2.2332   -1.6654 H   0  0  0  0  0  0  0  0  0  0  0  0
    1.1078   -1.6602   -1.8831 H   0  0  0  0  0  0  0  0  0  0  0  0
    0.7606    1.5488   -1.6349 H   0  0  0  0  0  0  0  0  0  0  0  0
    1.3026    2.5224   -0.2727 H   0  0  0  0  0  0  0  0  0  0  0  0
   -1.0637    2.9643   -0.8942 H   0  0  0  0  0  0  0  0  0  0  0  0
   -0.9277    2.3983    0.7629 H   0  0  0  0  0  0  0  0  0  0  0  0
   -1.7912    0.7684   -1.6835 H   0  0  0  0  0  0  0  0  0  0  0  0
   -2.7993    1.2621   -0.3269 H   0  0  0  0  0  0  0  0  0  0  0  0
    3.2156    0.8324   -0.0091 H   0  0  0  0  0  0  0  0  0  0  0  0
    2.8653   -0.8910    0.1626 H   0  0  0  0  0  0  0  0  0  0  0  0
    2.5636   -0.0676   -1.3747 H   0  0  0  0  0  0  0  0  0  0  0  0
    1.8415    1.4397    1.9525 H   0  0  0  0  0  0  0  0  0  0  0  0
    0.1744    0.8838    2.1365 H   0  0  0  0  0  0  0  0  0  0  0  0
    1.4944   -0.2755    2.2260 H   0  0  0  0  0  0  0  0  0  0  0  0
   -1.9461   -1.8786    1.4183 H   0  0  0  0  0  0  0  0  0  0  0  0
   -3.2612   -0.6318    1.0289 H   0  0  0  0  0  0  0  0  0  0  0  0
  1  2  1  0  0  0  0
  1  4  1  0  0  0  0
  2  3  1  0  0  0  0
  2  4  1  0  0  0  0
  2  6  1  0  0  0  0
  3  5  1  0  0  0  0
  3  9  1  0  0  0  0
  3 10  1  0  0  0  0
  4 12  1  0  0  0  0
  4 13  1  0  0  0  0
  5  7  1  0  0  0  0
  5 14  1  0  0  0  0
  5 15  1  0  0  0  0
  6  8  1  0  0  0  0
  6 11  2  0  0  0  0
  7  8  1  0  0  0  0
  7 16  1  0  0  0  0
  7 17  1  0  0  0  0
  8 18  1  0  0  0  0
  8 19  1  0  0  0  0
  9 20  1  0  0  0  0
  9 21  1  0  0  0  0
  9 22  1  0  0  0  0
 10 23  1  0  0  0  0
 10 24  1  0  0  0  0
 10 25  1  0  0  0  0
 11 26  1  0  0  0  0
 11 27  1  0  0  0  0
M  END
> <PUBCHEM_COMPOUND_CID>
586296

> <PUBCHEM_CONFORMER_RMSD>
0.4

> <PUBCHEM_CONFORMER_DIVERSEORDER>
2
1
4
5
3
6

> <PUBCHEM_MMFF94_PARTIAL_CHARGES>
11
1 -0.3
11 -0.3
12 0.1
13 0.1
2 0.09
26 0.15
27 0.15
3 0.09
4 -0.05
6 -0.18
8 0.14

> <PUBCHEM_EFFECTIVE_ROTOR_COUNT>
1.2

> <PUBCHEM_PHARMACOPHORE_FEATURES>
3
1 1 acceptor
3 3 9 10 hydrophobe
6 2 3 5 6 7 8 rings

> <PUBCHEM_HEAVY_ATOM_COUNT>
11

> <PUBCHEM_ATOM_DEF_STEREO_COUNT>
0

> <PUBCHEM_ATOM_UDEF_STEREO_COUNT>
1

> <PUBCHEM_BOND_DEF_STEREO_COUNT>
0

> <PUBCHEM_BOND_UDEF_STEREO_COUNT>
0

> <PUBCHEM_ISOTOPIC_ATOM_COUNT>
0

> <PUBCHEM_COMPONENT_COUNT>
1

> <PUBCHEM_CACTVS_TAUTO_COUNT>
1

> <PUBCHEM_CONFORMER_ID>
0008F23800000002

> <PUBCHEM_MMFF94_ENERGY>
21.9677

> <PUBCHEM_FEATURE_SELFOVERLAP>
15.223

> <PUBCHEM_SHAPE_FINGERPRINT>
12423570 1 9123718513594501672
13024252 1 16342851024244972268
137420 1 13129914181590074087
15557651 10 18113335284516333992
16945 1 18125155189270950604
18185500 45 17042050061550594173
21040471 1 18053394467525369989
21922407 69 16200158706841129328
23235685 24 18269282416151115541
241688 4 17475243869103375681
2748010 2 18340209587512826685
5084963 1 18188769418712942459
528886 8 18411694400385264661
54338 74 17257986560417900090

> <PUBCHEM_SHAPE_MULTIPOLES>
220.51
2.5
2.12
1.18
0.05
0.06
-0.33
-0.06
-0.35
0.21
0.54
-0.15
-0.06
0.37

> <PUBCHEM_SHAPE_SELFOVERLAP>
448.685

> <PUBCHEM_SHAPE_VOLUME>
129.3

> <PUBCHEM_COORDINATE_TYPE>
2
5
10

$$$$

