9158
  -OEChem-06261203283D

 32 36  0     0  0  0  0  0  0999 V2000
    2.0016    0.0000    0.0003 C   0  0  0  0  0  0  0  0  0  0  0  0
   -0.1836   -0.7102    0.0010 C   0  0  0  0  0  0  0  0  0  0  0  0
   -0.1836    0.7102    0.0011 C   0  0  0  0  0  0  0  0  0  0  0  0
    1.2084   -1.1386    0.0006 C   0  0  0  0  0  0  0  0  0  0  0  0
    1.2084    1.1386    0.0006 C   0  0  0  0  0  0  0  0  0  0  0  0
    3.3947    0.0000   -0.0005 C   0  0  0  0  0  0  0  0  0  0  0  0
   -1.3662   -1.4251    0.0005 C   0  0  0  0  0  0  0  0  0  0  0  0
   -1.3663    1.4251    0.0007 C   0  0  0  0  0  0  0  0  0  0  0  0
   -2.5801   -0.7145    0.0000 C   0  0  0  0  0  0  0  0  0  0  0  0
   -2.5801    0.7145    0.0002 C   0  0  0  0  0  0  0  0  0  0  0  0
    1.8147   -2.3809    0.0005 C   0  0  0  0  0  0  0  0  0  0  0  0
    1.8147    2.3809    0.0003 C   0  0  0  0  0  0  0  0  0  0  0  0
    4.0081   -1.2680   -0.0007 C   0  0  0  0  0  0  0  0  0  0  0  0
    4.0081    1.2680   -0.0011 C   0  0  0  0  0  0  0  0  0  0  0  0
    3.2199   -2.4392   -0.0002 C   0  0  0  0  0  0  0  0  0  0  0  0
    3.2199    2.4392   -0.0006 C   0  0  0  0  0  0  0  0  0  0  0  0
   -3.8062   -1.3963   -0.0008 C   0  0  0  0  0  0  0  0  0  0  0  0
   -3.8064    1.3963   -0.0002 C   0  0  0  0  0  0  0  0  0  0  0  0
   -5.0129   -0.6958   -0.0010 C   0  0  0  0  0  0  0  0  0  0  0  0
   -5.0130    0.6958   -0.0004 C   0  0  0  0  0  0  0  0  0  0  0  0
   -1.3535   -2.5114    0.0002 H   0  0  0  0  0  0  0  0  0  0  0  0
   -1.3536    2.5114    0.0006 H   0  0  0  0  0  0  0  0  0  0  0  0
    1.2323   -3.2962    0.0009 H   0  0  0  0  0  0  0  0  0  0  0  0
    1.2323    3.2962    0.0006 H   0  0  0  0  0  0  0  0  0  0  0  0
    5.0917   -1.3546   -0.0013 H   0  0  0  0  0  0  0  0  0  0  0  0
    5.0917    1.3546   -0.0018 H   0  0  0  0  0  0  0  0  0  0  0  0
    3.7119   -3.4090   -0.0004 H   0  0  0  0  0  0  0  0  0  0  0  0
    3.7119    3.4090   -0.0009 H   0  0  0  0  0  0  0  0  0  0  0  0
   -3.8347   -2.4842   -0.0011 H   0  0  0  0  0  0  0  0  0  0  0  0
   -3.8348    2.4842    0.0000 H   0  0  0  0  0  0  0  0  0  0  0  0
   -5.9540   -1.2384   -0.0014 H   0  0  0  0  0  0  0  0  0  0  0  0
   -5.9540    1.2383   -0.0006 H   0  0  0  0  0  0  0  0  0  0  0  0
  1  4  1  0  0  0  0
  1  5  1  0  0  0  0
  1  6  2  0  0  0  0
  2  3  1  0  0  0  0
  2  4  1  0  0  0  0
  2  7  2  0  0  0  0
  3  5  1  0  0  0  0
  3  8  2  0  0  0  0
  4 11  2  0  0  0  0
  5 12  2  0  0  0  0
  6 13  1  0  0  0  0
  6 14  1  0  0  0  0
  7  9  1  0  0  0  0
  7 21  1  0  0  0  0
  8 10  1  0  0  0  0
  8 22  1  0  0  0  0
  9 10  1  0  0  0  0
  9 17  2  0  0  0  0
 10 18  2  0  0  0  0
 11 15  1  0  0  0  0
 11 23  1  0  0  0  0
 12 16  1  0  0  0  0
 12 24  1  0  0  0  0
 13 15  2  0  0  0  0
 13 25  1  0  0  0  0
 14 16  2  0  0  0  0
 14 26  1  0  0  0  0
 15 27  1  0  0  0  0
 16 28  1  0  0  0  0
 17 19  1  0  0  0  0
 17 29  1  0  0  0  0
 18 20  1  0  0  0  0
 18 30  1  0  0  0  0
 19 20  2  0  0  0  0
 19 31  1  0  0  0  0
 20 32  1  0  0  0  0
M  END
> <PUBCHEM_COMPOUND_CID>
9158

> <PUBCHEM_CONFORMER_RMSD>
0.6

> <PUBCHEM_CONFORMER_DIVERSEORDER>
1

> <PUBCHEM_MMFF94_PARTIAL_CHARGES>
24
11 -0.15
12 -0.15
13 -0.15
14 -0.15
15 -0.15
16 -0.15
17 -0.15
18 -0.15
19 -0.15
20 -0.15
21 0.15
22 0.15
23 0.15
24 0.15
25 0.15
26 0.15
27 0.15
28 0.15
29 0.15
30 0.15
31 0.15
32 0.15
7 -0.15
8 -0.15

> <PUBCHEM_EFFECTIVE_ROTOR_COUNT>
0

> <PUBCHEM_PHARMACOPHORE_FEATURES>
5
5 1 2 3 4 5 rings
6 1 4 6 11 13 15 rings
6 1 5 6 12 14 16 rings
6 2 3 7 8 9 10 rings
6 9 10 17 18 19 20 rings

> <PUBCHEM_HEAVY_ATOM_COUNT>
20

> <PUBCHEM_ATOM_DEF_STEREO_COUNT>
0

> <PUBCHEM_ATOM_UDEF_STEREO_COUNT>
0

> <PUBCHEM_BOND_DEF_STEREO_COUNT>
0

> <PUBCHEM_BOND_UDEF_STEREO_COUNT>
0

> <PUBCHEM_ISOTOPIC_ATOM_COUNT>
0

> <PUBCHEM_COMPONENT_COUNT>
1

> <PUBCHEM_CACTVS_TAUTO_COUNT>
1

> <PUBCHEM_CONFORMER_ID>
000023C600000001

> <PUBCHEM_MMFF94_ENERGY>
85.4835

> <PUBCHEM_FEATURE_SELFOVERLAP>
25.704

> <PUBCHEM_SHAPE_FINGERPRINT>
10411042 1 17978510059658887042
10608611 8 18412829087964045485
10616163 171 18265050232760966415
10967382 1 18410573942592161796
1100329 8 16757197977993838739
11471102 20 18410857659230545220
11578080 2 13756914063163428252
12107183 9 17831292066938020665
12236239 1 17749389269153093992
12403259 226 18270124637683838460
12403259 415 18059860605920792149
12788726 201 17385993018864077881
13009979 54 17606391301261656890
13140716 1 18194972850785179578
13167823 11 18334859415925129399
13675066 3 18059850662902365139
138480 1 18338799043481095586
14341114 176 18410284827016311769
14790565 3 17980473473724833548
14866123 147 16965758823860270266
15196674 1 18410856560019571723
15230672 131 13874909765014247595
15442244 35 18265331883556516400
15536298 74 18408041814172925057
16945 1 18410855464850384000
17492 89 18409729560602056271
1813 80 17132112450804403373
18186145 218 17775290473506921815
18681886 176 18260272949623121186
19591789 44 18337671910470512511
200 152 18113903754046036507
20645477 70 18335137609072052935
21033648 29 17561091340962256589
21065198 57 18411981382016327555
21267235 1 18337664304046579446
21421861 104 17916031341843218034
21452121 103 18335711507530017160
221490 88 18412819179358533635
22854114 111 18411418388701828660
23366157 5 18131350808665950030
23559900 14 18408890667367404626
2748010 2 17763173640878882890
335352 9 18338799042942960895
33824 294 18411983533736829738
34934 24 18334581200395813326
350125 39 18411135865806118108
3545911 37 18411698764393797269
3886686 26 16253381972582848322
4214541 1 18410574032955487937
474 4 17988359252496027660
5104073 3 18411135844620991131
543358 83 18409162250971064064
602551 16 16056301831320695003
6443956 14 18339921614682879932
7364860 26 18408885139987035648
77779 3 18410855464887307275
8272917 22 18408880737387282990
9709674 26 18412821365744988979
9981440 41 17835244441667420904

> <PUBCHEM_SHAPE_MULTIPOLES>
411.59
9.33
2.62
0.62
7.18
0
0
0
0
-2.34
0
0
0
0

> <PUBCHEM_SHAPE_SELFOVERLAP>
970.982

> <PUBCHEM_SHAPE_VOLUME>
192.2

> <PUBCHEM_COORDINATE_TYPE>
2
5
10

$$$$

