13454
  -OEChem-06261214232D

 32 31  0     0  0  0  0  0  0999 V2000
    8.0240    3.4555    0.0000 S   0  0  0  0  0  0  0  0  0  0  0  0
    1.4860    2.1200    0.0000 O   0  0  0  0  0  0  0  0  0  0  0  0
    0.6200    3.6200    0.0000 O   0  0  0  0  0  0  0  0  0  0  0  0
    8.8900    3.9555    0.0000 O   0  5  0  0  0  0  0  0  0  0  0  0
    7.5240    4.3215    0.0000 O   0  0  0  0  0  0  0  0  0  0  0  0
    8.5240    2.5894    0.0000 O   0  0  0  0  0  0  0  0  0  0  0  0
    3.2181    6.1200    0.0000 N   0  3  0  0  0  0  0  0  0  0  0  0
    3.2181    5.1200    0.0000 C   0  0  0  0  0  0  0  0  0  0  0  0
    2.3521    3.6200    0.0000 C   0  0  0  0  0  0  0  0  0  0  0  0
    2.3521    4.6200    0.0000 C   0  0  0  0  0  0  0  0  0  0  0  0
    4.0841    4.6200    0.0000 C   0  0  0  0  0  0  0  0  0  0  0  0
    3.2181    3.1200    0.0000 C   0  0  0  0  0  0  0  0  0  0  0  0
    4.0841    3.6200    0.0000 C   0  0  0  0  0  0  0  0  0  0  0  0
    1.4860    3.1200    0.0000 C   0  0  0  0  0  0  0  0  0  0  0  0
    0.6200    1.6200    0.0000 C   0  0  0  0  0  0  0  0  0  0  0  0
    0.6200    0.6200    0.0000 C   0  0  0  0  0  0  0  0  0  0  0  0
    7.1580    2.9555    0.0000 C   0  0  0  0  0  0  0  0  0  0  0  0
    1.8151    4.9300    0.0000 H   0  0  0  0  0  0  0  0  0  0  0  0
    4.6210    4.9300    0.0000 H   0  0  0  0  0  0  0  0  0  0  0  0
    3.2181    2.5000    0.0000 H   0  0  0  0  0  0  0  0  0  0  0  0
    4.6210    3.3100    0.0000 H   0  0  0  0  0  0  0  0  0  0  0  0
    3.2181    6.7400    0.0000 H   0  0  0  0  0  0  0  0  0  0  0  0
    3.8381    6.1200    0.0000 H   0  0  0  0  0  0  0  0  0  0  0  0
    2.5981    6.1200    0.0000 H   0  0  0  0  0  0  0  0  0  0  0  0
    0.4079    2.2026    0.0000 H   0  0  0  0  0  0  0  0  0  0  0  0
    0.0094    1.5123    0.0000 H   0  0  0  0  0  0  0  0  0  0  0  0
    0.0000    0.6200    0.0000 H   0  0  0  0  0  0  0  0  0  0  0  0
    0.6200    0.0000    0.0000 H   0  0  0  0  0  0  0  0  0  0  0  0
    1.2400    0.6200    0.0000 H   0  0  0  0  0  0  0  0  0  0  0  0
    6.8480    3.4924    0.0000 H   0  0  0  0  0  0  0  0  0  0  0  0
    6.6210    2.6455    0.0000 H   0  0  0  0  0  0  0  0  0  0  0  0
    7.4680    2.4185    0.0000 H   0  0  0  0  0  0  0  0  0  0  0  0
  1  4  1  0  0  0  0
  1  5  2  0  0  0  0
  1  6  2  0  0  0  0
  1 17  1  0  0  0  0
  2 14  1  0  0  0  0
  2 15  1  0  0  0  0
  3 14  2  0  0  0  0
  7  8  1  0  0  0  0
  7 22  1  0  0  0  0
  7 23  1  0  0  0  0
  7 24  1  0  0  0  0
  8 10  1  0  0  0  0
  8 11  2  0  0  0  0
  9 10  2  0  0  0  0
  9 12  1  0  0  0  0
  9 14  1  0  0  0  0
 10 18  1  0  0  0  0
 11 13  1  0  0  0  0
 11 19  1  0  0  0  0
 12 13  2  0  0  0  0
 12 20  1  0  0  0  0
 13 21  1  0  0  0  0
 15 16  1  0  0  0  0
 15 25  1  0  0  0  0
 15 26  1  0  0  0  0
 16 27  1  0  0  0  0
 16 28  1  0  0  0  0
 16 29  1  0  0  0  0
 17 30  1  0  0  0  0
 17 31  1  0  0  0  0
 17 32  1  0  0  0  0
M  CHG  2   4  -1   7   1
M  END
> <PUBCHEM_COMPOUND_CID>
13454

> <PUBCHEM_COMPOUND_CANONICALIZED>
1

> <PUBCHEM_CACTVS_COMPLEXITY>
238

> <PUBCHEM_CACTVS_HBOND_ACCEPTOR>
5

> <PUBCHEM_CACTVS_HBOND_DONOR>
1

> <PUBCHEM_CACTVS_ROTATABLE_BOND>
3

> <PUBCHEM_CACTVS_SUBSKEYS>
AAADccByOABAAAAAAAAAAAAAAAAAAAAAAAAwAAAAAAAAAAABAAAAHgQQAAAADAihmAKyyIBABAKIAiTSSHCCAAAkAgAIiAEAbMgIJjKAtZmCMQBk0AEI6Ye8yCCOAAAAQAAAAAAAAACAAAAAAAAAAAAAAA==

> <PUBCHEM_IUPAC_OPENEYE_NAME>
(3-ethoxycarbonylphenyl)ammonium; methanesulfonate

> <PUBCHEM_IUPAC_CAS_NAME>
(3-ethoxycarbonylphenyl)ammonium; methanesulfonate

> <PUBCHEM_IUPAC_NAME>
(3-ethoxycarbonylphenyl)azanium; methanesulfonate

> <PUBCHEM_IUPAC_SYSTEMATIC_NAME>
(3-ethoxycarbonylphenyl)azanium; methanesulfonate

> <PUBCHEM_IUPAC_TRADITIONAL_NAME>
(3-carbethoxyphenyl)ammonium mesylate

> <PUBCHEM_IUPAC_INCHI>
InChI=1S/C9H11NO2.CH4O3S/c1-2-12-9(11)7-4-3-5-8(10)6-7;1-5(2,3)4/h3-6H,2,10H2,1H3;1H3,(H,2,3,4)

> <PUBCHEM_IUPAC_INCHIKEY>
FQZJYWMRQDKBQN-UHFFFAOYSA-N

> <PUBCHEM_EXACT_MASS>
261.067094

> <PUBCHEM_MOLECULAR_FORMULA>
C10H15NO5S

> <PUBCHEM_MOLECULAR_WEIGHT>
261.2948

> <PUBCHEM_OPENEYE_CAN_SMILES>
CCOC(=O)C1=CC(=CC=C1)[NH3+].CS(=O)(=O)[O-]

> <PUBCHEM_OPENEYE_ISO_SMILES>
CCOC(=O)C1=CC(=CC=C1)[NH3+].CS(=O)(=O)[O-]

> <PUBCHEM_CACTVS_TPSA>
120

> <PUBCHEM_MONOISOTOPIC_WEIGHT>
261.067094

> <PUBCHEM_TOTAL_CHARGE>
0

> <PUBCHEM_HEAVY_ATOM_COUNT>
17

> <PUBCHEM_ATOM_DEF_STEREO_COUNT>
0

> <PUBCHEM_ATOM_UDEF_STEREO_COUNT>
0

> <PUBCHEM_BOND_DEF_STEREO_COUNT>
0

> <PUBCHEM_BOND_UDEF_STEREO_COUNT>
0

> <PUBCHEM_ISOTOPIC_ATOM_COUNT>
0

> <PUBCHEM_COMPONENT_COUNT>
2

> <PUBCHEM_CACTVS_TAUTO_COUNT>
1

> <PUBCHEM_COORDINATE_TYPE>
1
5
255

> <PUBCHEM_BONDANNOTATIONS>
11  13  8
12  13  8
8  10  8
8  11  8
9  10  8
9  12  8

$$$$

