47205653
  -OEChem-06241222592D

 41 41  0     1  0  0  0  0  0999 V2000
    2.8660   -4.5000    0.0000 Cl  0  0  0  0  0  0  0  0  0  0  0  0
    2.8660    1.5000    0.0000 O   0  0  0  0  0  0  0  0  0  0  0  0
    4.5981   -0.5000    0.0000 O   0  0  0  0  0  0  0  0  0  0  0  0
    4.5981    1.5000    0.0000 N   0  0  0  0  0  0  0  0  0  0  0  0
    2.8660   -0.5000    0.0000 N   0  0  0  0  0  0  0  0  0  0  0  0
    4.5981    2.5000    0.0000 C   0  0  3  0  0  0  0  0  0  0  0  0
    5.4641    3.0000    0.0000 C   0  0  0  0  0  0  0  0  0  0  0  0
    5.4641    4.0000    0.0000 C   0  0  0  0  0  0  0  0  0  0  0  0
    3.7320    3.0000    0.0000 C   0  0  0  0  0  0  0  0  0  0  0  0
    6.3301    4.5000    0.0000 C   0  0  0  0  0  0  0  0  0  0  0  0
    4.5981    4.5000    0.0000 C   0  0  0  0  0  0  0  0  0  0  0  0
    5.4641    1.0000    0.0000 C   0  0  0  0  0  0  0  0  0  0  0  0
    3.7320    1.0000    0.0000 C   0  0  0  0  0  0  0  0  0  0  0  0
    3.7320    0.0000    0.0000 C   0  0  0  0  0  0  0  0  0  0  0  0
    2.8660   -1.5000    0.0000 C   0  0  0  0  0  0  0  0  0  0  0  0
    2.0000   -2.0000    0.0000 C   0  0  0  0  0  0  0  0  0  0  0  0
    3.7320   -2.0000    0.0000 C   0  0  0  0  0  0  0  0  0  0  0  0
    2.0000   -3.0000    0.0000 C   0  0  0  0  0  0  0  0  0  0  0  0
    3.7320   -3.0000    0.0000 C   0  0  0  0  0  0  0  0  0  0  0  0
    2.8660   -3.5000    0.0000 C   0  0  0  0  0  0  0  0  0  0  0  0
    5.1350    2.1900    0.0000 H   0  0  0  0  0  0  0  0  0  0  0  0
    5.6762    2.4174    0.0000 H   0  0  0  0  0  0  0  0  0  0  0  0
    6.0747    3.1077    0.0000 H   0  0  0  0  0  0  0  0  0  0  0  0
    5.4641    4.6200    0.0000 H   0  0  0  0  0  0  0  0  0  0  0  0
    4.0420    3.5369    0.0000 H   0  0  0  0  0  0  0  0  0  0  0  0
    3.1951    3.3100    0.0000 H   0  0  0  0  0  0  0  0  0  0  0  0
    3.4220    2.4631    0.0000 H   0  0  0  0  0  0  0  0  0  0  0  0
    6.6401    3.9631    0.0000 H   0  0  0  0  0  0  0  0  0  0  0  0
    4.9081    5.0369    0.0000 H   0  0  0  0  0  0  0  0  0  0  0  0
    4.0611    4.8100    0.0000 H   0  0  0  0  0  0  0  0  0  0  0  0
    4.2881    3.9631    0.0000 H   0  0  0  0  0  0  0  0  0  0  0  0
    6.8671    4.8100    0.0000 H   0  0  0  0  0  0  0  0  0  0  0  0
    6.0201    5.0369    0.0000 H   0  0  0  0  0  0  0  0  0  0  0  0
    5.1541    0.4631    0.0000 H   0  0  0  0  0  0  0  0  0  0  0  0
    6.0010    0.6900    0.0000 H   0  0  0  0  0  0  0  0  0  0  0  0
    5.7741    1.5369    0.0000 H   0  0  0  0  0  0  0  0  0  0  0  0
    2.3291   -0.1900    0.0000 H   0  0  0  0  0  0  0  0  0  0  0  0
    1.4631   -1.6900    0.0000 H   0  0  0  0  0  0  0  0  0  0  0  0
    4.2690   -1.6900    0.0000 H   0  0  0  0  0  0  0  0  0  0  0  0
    1.4631   -3.3100    0.0000 H   0  0  0  0  0  0  0  0  0  0  0  0
    4.2690   -3.3100    0.0000 H   0  0  0  0  0  0  0  0  0  0  0  0
  1 20  1  0  0  0  0
  2 13  2  0  0  0  0
  3 14  2  0  0  0  0
  4  6  1  0  0  0  0
  4 12  1  0  0  0  0
  4 13  1  0  0  0  0
  5 14  1  0  0  0  0
  5 15  1  0  0  0  0
  5 37  1  0  0  0  0
  6  7  1  0  0  0  0
  6  9  1  0  0  0  0
  6 21  1  0  0  0  0
  7  8  1  0  0  0  0
  7 22  1  0  0  0  0
  7 23  1  0  0  0  0
  8 10  1  0  0  0  0
  8 11  1  0  0  0  0
  8 24  1  0  0  0  0
  9 25  1  0  0  0  0
  9 26  1  0  0  0  0
  9 27  1  0  0  0  0
 10 28  1  0  0  0  0
 10 32  1  0  0  0  0
 10 33  1  0  0  0  0
 11 29  1  0  0  0  0
 11 30  1  0  0  0  0
 11 31  1  0  0  0  0
 12 34  1  0  0  0  0
 12 35  1  0  0  0  0
 12 36  1  0  0  0  0
 13 14  1  0  0  0  0
 15 16  2  0  0  0  0
 15 17  1  0  0  0  0
 16 18  1  0  0  0  0
 16 38  1  0  0  0  0
 17 19  2  0  0  0  0
 17 39  1  0  0  0  0
 18 20  2  0  0  0  0
 18 40  1  0  0  0  0
 19 20  1  0  0  0  0
 19 41  1  0  0  0  0
M  END
> <PUBCHEM_COMPOUND_CID>
47205653

> <PUBCHEM_COMPOUND_CANONICALIZED>
1

> <PUBCHEM_CACTVS_COMPLEXITY>
339

> <PUBCHEM_CACTVS_HBOND_ACCEPTOR>
2

> <PUBCHEM_CACTVS_HBOND_DONOR>
1

> <PUBCHEM_CACTVS_ROTATABLE_BOND>
4

> <PUBCHEM_CACTVS_SUBSKEYS>
AAADceBzMAAEAAAAAAAAAAAAAAAAAAAAAAAwAAAAAAAAAAABAAAAHgIQAAAADSrBkCQywIPAAACIACVSUACCAAAhBwAIiACIZogIYCLBk7GUIAhglgDIyAcQAAAMAABAAAAAAAAAAIAAAAAAAAAAAAAAAA==

> <PUBCHEM_IUPAC_OPENEYE_NAME>
N-(4-chlorophenyl)-N'-(1,3-dimethylbutyl)-N'-methyl-oxamide

> <PUBCHEM_IUPAC_CAS_NAME>
N-(4-chlorophenyl)-N'-methyl-N'-(4-methylpentan-2-yl)oxamide

> <PUBCHEM_IUPAC_NAME>
N-(4-chlorophenyl)-N'-methyl-N'-(4-methylpentan-2-yl)oxamide

> <PUBCHEM_IUPAC_SYSTEMATIC_NAME>
N-(4-chlorophenyl)-N'-methyl-N'-(4-methylpentan-2-yl)ethanediamide

> <PUBCHEM_IUPAC_TRADITIONAL_NAME>
N-(4-chlorophenyl)-N'-(1,3-dimethylbutyl)-N'-methyl-oxamide

> <PUBCHEM_IUPAC_INCHI>
InChI=1S/C15H21ClN2O2/c1-10(2)9-11(3)18(4)15(20)14(19)17-13-7-5-12(16)6-8-13/h5-8,10-11H,9H2,1-4H3,(H,17,19)

> <PUBCHEM_IUPAC_INCHIKEY>
NODWDUIILDOKOO-UHFFFAOYSA-N

> <PUBCHEM_XLOGP3_AA>
3.7

> <PUBCHEM_EXACT_MASS>
296.129156

> <PUBCHEM_MOLECULAR_FORMULA>
C15H21ClN2O2

> <PUBCHEM_MOLECULAR_WEIGHT>
296.79244

> <PUBCHEM_OPENEYE_CAN_SMILES>
CC(C)CC(C)N(C)C(=O)C(=O)NC1=CC=C(C=C1)Cl

> <PUBCHEM_OPENEYE_ISO_SMILES>
CC(C)CC(C)N(C)C(=O)C(=O)NC1=CC=C(C=C1)Cl

> <PUBCHEM_CACTVS_TPSA>
49.4

> <PUBCHEM_MONOISOTOPIC_WEIGHT>
296.129156

> <PUBCHEM_TOTAL_CHARGE>
0

> <PUBCHEM_HEAVY_ATOM_COUNT>
20

> <PUBCHEM_ATOM_DEF_STEREO_COUNT>
0

> <PUBCHEM_ATOM_UDEF_STEREO_COUNT>
1

> <PUBCHEM_BOND_DEF_STEREO_COUNT>
0

> <PUBCHEM_BOND_UDEF_STEREO_COUNT>
0

> <PUBCHEM_ISOTOPIC_ATOM_COUNT>
0

> <PUBCHEM_COMPONENT_COUNT>
1

> <PUBCHEM_CACTVS_TAUTO_COUNT>
2

> <PUBCHEM_COORDINATE_TYPE>
1
5
255

> <PUBCHEM_BONDANNOTATIONS>
15  16  8
15  17  8
16  18  8
17  19  8
18  20  8
19  20  8
6  9  3

$$$$

