854030
  -OEChem-06241222473D

 23 22  0     1  0  0  0  0  0999 V2000
    2.3982    0.5945   -0.2892 O   0  0  0  0  0  0  0  0  0  0  0  0
    0.1426   -0.0367   -1.7883 N   0  0  0  0  0  0  0  0  0  0  0  0
    1.9752   -1.2372    1.0270 N   0  0  0  0  0  0  0  0  0  0  0  0
   -0.8004    0.3942    0.5225 C   0  0  2  0  0  0  0  0  0  0  0  0
    0.1790   -0.4083   -0.3745 C   0  0  2  0  0  0  0  0  0  0  0  0
   -2.2783    0.2561    0.0940 C   0  0  0  0  0  0  0  0  0  0  0  0
   -0.4476    1.8881    0.6040 C   0  0  0  0  0  0  0  0  0  0  0  0
   -2.7915   -1.1767    0.1002 C   0  0  0  0  0  0  0  0  0  0  0  0
    1.6228   -0.2740    0.1044 C   0  0  0  0  0  0  0  0  0  0  0  0
   -0.7131   -0.0036    1.5434 H   0  0  0  0  0  0  0  0  0  0  0  0
   -0.0813   -1.4722   -0.3212 H   0  0  0  0  0  0  0  0  0  0  0  0
   -2.4382    0.6951   -0.8978 H   0  0  0  0  0  0  0  0  0  0  0  0
   -2.9003    0.8363    0.7879 H   0  0  0  0  0  0  0  0  0  0  0  0
   -1.1404    2.4085    1.2750 H   0  0  0  0  0  0  0  0  0  0  0  0
    0.5584    2.0437    1.0046 H   0  0  0  0  0  0  0  0  0  0  0  0
   -0.5090    2.3748   -0.3744 H   0  0  0  0  0  0  0  0  0  0  0  0
   -2.3211   -1.7770   -0.6838 H   0  0  0  0  0  0  0  0  0  0  0  0
   -2.6064   -1.6569    1.0660 H   0  0  0  0  0  0  0  0  0  0  0  0
   -3.8711   -1.1882   -0.0818 H   0  0  0  0  0  0  0  0  0  0  0  0
    0.3418    0.9566   -1.8955 H   0  0  0  0  0  0  0  0  0  0  0  0
   -0.7944   -0.1791   -2.1613 H   0  0  0  0  0  0  0  0  0  0  0  0
    1.3249   -1.9451    1.3529 H   0  0  0  0  0  0  0  0  0  0  0  0
    2.9090   -1.2611    1.4231 H   0  0  0  0  0  0  0  0  0  0  0  0
  1  9  2  0  0  0  0
  2  5  1  0  0  0  0
  2 20  1  0  0  0  0
  2 21  1  0  0  0  0
  3  9  1  0  0  0  0
  3 22  1  0  0  0  0
  3 23  1  0  0  0  0
  4  5  1  0  0  0  0
  4  6  1  0  0  0  0
  4  7  1  0  0  0  0
  4 10  1  0  0  0  0
  5  9  1  0  0  0  0
  5 11  1  0  0  0  0
  6  8  1  0  0  0  0
  6 12  1  0  0  0  0
  6 13  1  0  0  0  0
  7 14  1  0  0  0  0
  7 15  1  0  0  0  0
  7 16  1  0  0  0  0
  8 17  1  0  0  0  0
  8 18  1  0  0  0  0
  8 19  1  0  0  0  0
M  END
> <PUBCHEM_COMPOUND_CID>
854030

> <PUBCHEM_CONFORMER_RMSD>
0.6

> <PUBCHEM_CONFORMER_DIVERSEORDER>
1
22
12
10
17
5
15
11
20
23
19
16
2
21
7
14
9
13
8
3
6
4
25
24
18

> <PUBCHEM_MMFF94_PARTIAL_CHARGES>
9
1 -0.57
2 -0.99
20 0.36
21 0.36
22 0.37
23 0.37
3 -0.8
5 0.33
9 0.57

> <PUBCHEM_EFFECTIVE_ROTOR_COUNT>
3

> <PUBCHEM_PHARMACOPHORE_FEATURES>
6
1 1 acceptor
1 2 cation
1 2 donor
1 3 donor
1 7 hydrophobe
1 8 hydrophobe

> <PUBCHEM_HEAVY_ATOM_COUNT>
9

> <PUBCHEM_ATOM_DEF_STEREO_COUNT>
2

> <PUBCHEM_ATOM_UDEF_STEREO_COUNT>
0

> <PUBCHEM_BOND_DEF_STEREO_COUNT>
0

> <PUBCHEM_BOND_UDEF_STEREO_COUNT>
0

> <PUBCHEM_ISOTOPIC_ATOM_COUNT>
0

> <PUBCHEM_COMPONENT_COUNT>
1

> <PUBCHEM_CACTVS_TAUTO_COUNT>
2

> <PUBCHEM_CONFORMER_ID>
000D080E00000001

> <PUBCHEM_MMFF94_ENERGY>
11.0879

> <PUBCHEM_FEATURE_SELFOVERLAP>
30.446

> <PUBCHEM_SHAPE_FINGERPRINT>
10857977 72 17822014190006320355
14128692 85 18059848416323525271
20653091 64 18046053874922145441
21040471 1 17539959998042935601
21922407 69 18270390715297381296
23552333 60 17989494025847300642
23552423 10 18272083963003904011
23552449 11 18189053088844982067
24536 1 17461435012201594496
29004967 10 17894622648007138835
5084963 1 17459183139563232798
528862 383 17900554379984520401

> <PUBCHEM_SHAPE_MULTIPOLES>
169.38
3.43
1.42
1.08
0.69
0.58
0.35
-1.09
-0.49
0.3
-0.31
-0.31
-0.19
-0.26

> <PUBCHEM_SHAPE_SELFOVERLAP>
311.351

> <PUBCHEM_SHAPE_VOLUME>
107.1

> <PUBCHEM_COORDINATE_TYPE>
2
5
10

$$$$

