586240
  -OEChem-06241222463D

 41 43  0     1  0  0  0  0  0999 V2000
    1.1276   -0.0340    0.2699 O   0  0  0  0  0  0  0  0  0  0  0  0
    0.4166    2.2242   -0.0490 O   0  0  0  0  0  0  0  0  0  0  0  0
   -5.0571   -0.7971   -0.0977 O   0  0  0  0  0  0  0  0  0  0  0  0
    2.5189    0.3173    0.3517 C   0  0  0  0  0  0  0  0  0  0  0  0
    3.2428    0.0391   -0.9851 C   0  0  0  0  0  0  0  0  0  0  0  0
    3.1349   -0.5780    1.4486 C   0  0  0  0  0  0  0  0  0  0  0  0
    2.6406    1.7951    0.7728 C   0  0  0  0  0  0  0  0  0  0  0  0
    3.2024   -1.4414   -1.3669 C   0  0  0  0  0  0  0  0  0  0  0  0
    3.1101   -2.0620    1.0766 C   0  0  0  0  0  0  0  0  0  0  0  0
    3.7865   -2.3184   -0.2650 C   0  0  0  0  0  0  0  0  0  0  0  0
    1.7599    2.6988   -0.0797 C   0  0  0  0  0  0  0  0  0  0  0  0
    0.3389    0.8720   -0.5058 C   0  0  2  0  0  0  0  0  0  0  0  0
   -1.1000    0.4267   -0.3969 C   0  0  0  0  0  0  0  0  0  0  0  0
   -1.8030    0.0465   -1.5411 C   0  0  0  0  0  0  0  0  0  0  0  0
   -1.7298    0.3945    0.8485 C   0  0  0  0  0  0  0  0  0  0  0  0
   -3.1322   -0.3644   -1.4405 C   0  0  0  0  0  0  0  0  0  0  0  0
   -3.0589   -0.0166    0.9493 C   0  0  0  0  0  0  0  0  0  0  0  0
   -3.7602   -0.3962   -0.1953 C   0  0  0  0  0  0  0  0  0  0  0  0
   -5.6378   -0.8058    1.2056 C   0  0  0  0  0  0  0  0  0  0  0  0
    4.2904    0.3583   -0.9083 H   0  0  0  0  0  0  0  0  0  0  0  0
    2.8036    0.6115   -1.8081 H   0  0  0  0  0  0  0  0  0  0  0  0
    2.5794   -0.4561    2.3871 H   0  0  0  0  0  0  0  0  0  0  0  0
    4.1714   -0.2734    1.6417 H   0  0  0  0  0  0  0  0  0  0  0  0
    3.6820    2.1340    0.7439 H   0  0  0  0  0  0  0  0  0  0  0  0
    2.2918    1.8899    1.8099 H   0  0  0  0  0  0  0  0  0  0  0  0
    3.7664   -1.5956   -2.2939 H   0  0  0  0  0  0  0  0  0  0  0  0
    2.1683   -1.7445   -1.5707 H   0  0  0  0  0  0  0  0  0  0  0  0
    2.0729   -2.4169    1.0374 H   0  0  0  0  0  0  0  0  0  0  0  0
    3.6127   -2.6435    1.8580 H   0  0  0  0  0  0  0  0  0  0  0  0
    3.6800   -3.3745   -0.5371 H   0  0  0  0  0  0  0  0  0  0  0  0
    4.8615   -2.1196   -0.1736 H   0  0  0  0  0  0  0  0  0  0  0  0
    1.7661    3.7170    0.3218 H   0  0  0  0  0  0  0  0  0  0  0  0
    2.1077    2.7523   -1.1170 H   0  0  0  0  0  0  0  0  0  0  0  0
    0.6502    0.8300   -1.5562 H   0  0  0  0  0  0  0  0  0  0  0  0
   -1.3279    0.0654   -2.5183 H   0  0  0  0  0  0  0  0  0  0  0  0
   -1.1943    0.6877    1.7479 H   0  0  0  0  0  0  0  0  0  0  0  0
   -3.6733   -0.6589   -2.3355 H   0  0  0  0  0  0  0  0  0  0  0  0
   -3.4851   -0.0174    1.9466 H   0  0  0  0  0  0  0  0  0  0  0  0
   -5.6803    0.2014    1.6339 H   0  0  0  0  0  0  0  0  0  0  0  0
   -5.1314   -1.5170    1.8670 H   0  0  0  0  0  0  0  0  0  0  0  0
   -6.6713   -1.1508    1.0968 H   0  0  0  0  0  0  0  0  0  0  0  0
  1  4  1  0  0  0  0
  1 12  1  0  0  0  0
  2 11  1  0  0  0  0
  2 12  1  0  0  0  0
  3 18  1  0  0  0  0
  3 19  1  0  0  0  0
  4  5  1  0  0  0  0
  4  6  1  0  0  0  0
  4  7  1  0  0  0  0
  5  8  1  0  0  0  0
  5 20  1  0  0  0  0
  5 21  1  0  0  0  0
  6  9  1  0  0  0  0
  6 22  1  0  0  0  0
  6 23  1  0  0  0  0
  7 11  1  0  0  0  0
  7 24  1  0  0  0  0
  7 25  1  0  0  0  0
  8 10  1  0  0  0  0
  8 26  1  0  0  0  0
  8 27  1  0  0  0  0
  9 10  1  0  0  0  0
  9 28  1  0  0  0  0
  9 29  1  0  0  0  0
 10 30  1  0  0  0  0
 10 31  1  0  0  0  0
 11 32  1  0  0  0  0
 11 33  1  0  0  0  0
 12 13  1  0  0  0  0
 12 34  1  0  0  0  0
 13 14  2  0  0  0  0
 13 15  1  0  0  0  0
 14 16  1  0  0  0  0
 14 35  1  0  0  0  0
 15 17  2  0  0  0  0
 15 36  1  0  0  0  0
 16 18  2  0  0  0  0
 16 37  1  0  0  0  0
 17 18  1  0  0  0  0
 17 38  1  0  0  0  0
 19 39  1  0  0  0  0
 19 40  1  0  0  0  0
 19 41  1  0  0  0  0
M  END
> <PUBCHEM_COMPOUND_CID>
586240

> <PUBCHEM_CONFORMER_RMSD>
0.6

> <PUBCHEM_CONFORMER_DIVERSEORDER>
5
8
19
14
17
7
16
22
12
18
4
13
10
2
11
6
20
9
21
3
15
1

> <PUBCHEM_MMFF94_PARTIAL_CHARGES>
17
1 -0.56
11 0.28
12 0.7
13 -0.14
14 -0.15
15 -0.15
16 -0.15
17 -0.15
18 0.08
19 0.28
2 -0.56
3 -0.36
35 0.15
36 0.15
37 0.15
38 0.15
4 0.28

> <PUBCHEM_EFFECTIVE_ROTOR_COUNT>
4

> <PUBCHEM_PHARMACOPHORE_FEATURES>
6
1 1 acceptor
1 2 acceptor
1 3 acceptor
6 1 2 4 7 11 12 rings
6 13 14 15 16 17 18 rings
6 4 5 6 8 9 10 rings

> <PUBCHEM_HEAVY_ATOM_COUNT>
19

> <PUBCHEM_ATOM_DEF_STEREO_COUNT>
0

> <PUBCHEM_ATOM_UDEF_STEREO_COUNT>
1

> <PUBCHEM_BOND_DEF_STEREO_COUNT>
0

> <PUBCHEM_BOND_UDEF_STEREO_COUNT>
0

> <PUBCHEM_ISOTOPIC_ATOM_COUNT>
0

> <PUBCHEM_COMPONENT_COUNT>
1

> <PUBCHEM_CACTVS_TAUTO_COUNT>
1

> <PUBCHEM_CONFORMER_ID>
0008F20000000005

> <PUBCHEM_MMFF94_ENERGY>
51.9102

> <PUBCHEM_FEATURE_SELFOVERLAP>
30.482

> <PUBCHEM_SHAPE_FINGERPRINT>
10498660 4 10087342461355862102
11128504 68 13830128395437405611
11140007 195 16153695579250833476
11543360 7 15339111364246994599
12236239 1 17749385923616481889
12363563 72 18269561692341661618
12403259 327 14996292439221287998
12553582 1 18334298703549449342
12616999 72 16917064451884956474
12644460 14 18261385603307231004
12707595 3 18342744039355954294
13140716 1 17977113357726515888
13296908 3 18342466966472938781
13464513 79 18334012805051932934
13533116 47 18337104580262086979
13675066 3 17821730537787035177
14178342 30 17755038401172831728
14251758 9 18114457981137423897
14251764 30 17970331819188610054
14252887 29 18408047312179457128
14366163 111 13183020718193084967
14386348 63 17846499214297558163
14848160 33 18341623632628088654
15635459 17 18202284680081801634
15664445 248 16629953335457306860
17349148 13 17167864171294217549
17818456 19 17822843307990099129
1813 80 18261664982640393500
20281475 54 17846778541959393233
20361792 2 18337115665208732956
20369508 70 18343587338914951602
20559304 39 17530964657440799264
20645477 70 18412829053498545719
20671657 53 18343024423157965672
20871998 22 18335708290515174400
21731516 1 18337111297379908556
2215653 11 18060424612594469007
2255824 54 18335984151911717548
23466295 7 16236991505054597110
23557571 272 16415209965846677012
23559900 14 18410011001133723307
31174 14 18340773658563384468
312423 11 18337942463493186513
3286 77 18202570596001883627
3323516 105 18060422417301710955
341906 21 14923940133454728435
3421961 26 18409168822534803610
4072396 5 16950555602495972865
465052 167 18337099112558164143
5104073 3 17821723897979086435
5374978 207 16081087078289857123
573450 72 16877944919575611503
6049 1 17988655098612808605
7808743 9 8068298268945621530
7970288 3 18266456688506311078
81228 2 17905901618890444920
8509985 295 16660641865072426369
90316 7 16877943858449768545
94968 8 18343016709823917882
960060 61 17704067400088600935
9841814 1 18411705387286089552

> <PUBCHEM_SHAPE_MULTIPOLES>
373.4
9.58
2.18
1.42
10.84
0.66
0.13
-5.36
-1.63
-2.96
-0.16
0.11
-0.35
0.3

> <PUBCHEM_SHAPE_SELFOVERLAP>
787.228

> <PUBCHEM_SHAPE_VOLUME>
206.9

> <PUBCHEM_COORDINATE_TYPE>
2
5
10

$$$$

