10896
  -OEChem-06261205053D

 28 27  0     1  0  0  0  0  0999 V2000
   -2.1542   -0.8777   -0.3732 N   0  0  0  0  0  0  0  0  0  0  0  0
   -0.3933    0.8405   -0.1239 C   0  0  0  0  0  0  0  0  0  0  0  0
   -1.7970    0.3733    0.2969 C   0  0  1  0  0  0  0  0  0  0  0  0
    0.7079   -0.1657    0.2344 C   0  0  0  0  0  0  0  0  0  0  0  0
    2.0913    0.3756   -0.1363 C   0  0  0  0  0  0  0  0  0  0  0  0
    3.2281   -0.6000    0.1759 C   0  0  0  0  0  0  0  0  0  0  0  0
   -2.8391    1.4435   -0.0268 C   0  0  0  0  0  0  0  0  0  0  0  0
    4.6098   -0.0399   -0.1248 C   0  0  0  0  0  0  0  0  0  0  0  0
   -3.4536   -1.3497    0.0778 C   0  0  0  0  0  0  0  0  0  0  0  0
   -0.3718    1.0335   -1.2047 H   0  0  0  0  0  0  0  0  0  0  0  0
   -0.1734    1.7964    0.3689 H   0  0  0  0  0  0  0  0  0  0  0  0
   -1.7803    0.2163    1.3833 H   0  0  0  0  0  0  0  0  0  0  0  0
    0.6760   -0.3805    1.3092 H   0  0  0  0  0  0  0  0  0  0  0  0
    0.5419   -1.1126   -0.2920 H   0  0  0  0  0  0  0  0  0  0  0  0
    2.1131    0.6181   -1.2061 H   0  0  0  0  0  0  0  0  0  0  0  0
    2.2665    1.3142    0.4043 H   0  0  0  0  0  0  0  0  0  0  0  0
    3.1857   -0.8790    1.2355 H   0  0  0  0  0  0  0  0  0  0  0  0
    3.0842   -1.5213   -0.4009 H   0  0  0  0  0  0  0  0  0  0  0  0
   -2.5111    2.4194    0.3500 H   0  0  0  0  0  0  0  0  0  0  0  0
   -3.8058    1.2425    0.4455 H   0  0  0  0  0  0  0  0  0  0  0  0
   -2.9935    1.5477   -1.1070 H   0  0  0  0  0  0  0  0  0  0  0  0
   -2.1679   -0.7470   -1.3841 H   0  0  0  0  0  0  0  0  0  0  0  0
    4.7032    0.2192   -1.1841 H   0  0  0  0  0  0  0  0  0  0  0  0
    5.3806   -0.7787    0.1154 H   0  0  0  0  0  0  0  0  0  0  0  0
    4.8034    0.8602    0.4673 H   0  0  0  0  0  0  0  0  0  0  0  0
   -3.5950   -2.3761   -0.2774 H   0  0  0  0  0  0  0  0  0  0  0  0
   -4.2817   -0.7620   -0.3293 H   0  0  0  0  0  0  0  0  0  0  0  0
   -3.5255   -1.3795    1.1702 H   0  0  0  0  0  0  0  0  0  0  0  0
  1  3  1  0  0  0  0
  1  9  1  0  0  0  0
  1 22  1  0  0  0  0
  2  3  1  0  0  0  0
  2  4  1  0  0  0  0
  2 10  1  0  0  0  0
  2 11  1  0  0  0  0
  3  7  1  0  0  0  0
  3 12  1  0  0  0  0
  4  5  1  0  0  0  0
  4 13  1  0  0  0  0
  4 14  1  0  0  0  0
  5  6  1  0  0  0  0
  5 15  1  0  0  0  0
  5 16  1  0  0  0  0
  6  8  1  0  0  0  0
  6 17  1  0  0  0  0
  6 18  1  0  0  0  0
  7 19  1  0  0  0  0
  7 20  1  0  0  0  0
  7 21  1  0  0  0  0
  8 23  1  0  0  0  0
  8 24  1  0  0  0  0
  8 25  1  0  0  0  0
  9 26  1  0  0  0  0
  9 27  1  0  0  0  0
  9 28  1  0  0  0  0
M  END
> <PUBCHEM_COMPOUND_CID>
10896

> <PUBCHEM_CONFORMER_RMSD>
0.6

> <PUBCHEM_CONFORMER_DIVERSEORDER>
1
97
12
102
28
112
40
108
39
61
8
33
38
111
70
73
107
44
104
6
85
94
100
56
109
53
63
106
10
91
110
23
67
99
69
60
101
9
4
29
84
34
26
41
48
74
15
80
66
50
93
96
79
31
86
3
81
24
18
72
78
25
54
46
43
45
103
71
19
32
59
58
98
95
83
37
75
105
82
30
17
27
16
14
89
65
35
11
20
77
87
47
90
88
2
92
68
13
52
57
5
76
21
64
36
51
55
49
42
7
62
22

> <PUBCHEM_MMFF94_PARTIAL_CHARGES>
4
1 -0.9
22 0.36
3 0.27
9 0.27

> <PUBCHEM_EFFECTIVE_ROTOR_COUNT>
5

> <PUBCHEM_PHARMACOPHORE_FEATURES>
4
1 1 cation
1 1 donor
1 8 hydrophobe
4 2 4 5 6 hydrophobe

> <PUBCHEM_HEAVY_ATOM_COUNT>
9

> <PUBCHEM_ATOM_DEF_STEREO_COUNT>
0

> <PUBCHEM_ATOM_UDEF_STEREO_COUNT>
1

> <PUBCHEM_BOND_DEF_STEREO_COUNT>
0

> <PUBCHEM_BOND_UDEF_STEREO_COUNT>
0

> <PUBCHEM_ISOTOPIC_ATOM_COUNT>
0

> <PUBCHEM_COMPONENT_COUNT>
1

> <PUBCHEM_CACTVS_TAUTO_COUNT>
1

> <PUBCHEM_CONFORMER_ID>
00002A9000000001

> <PUBCHEM_MMFF94_ENERGY>
-0.2405

> <PUBCHEM_FEATURE_SELFOVERLAP>
20.297

> <PUBCHEM_SHAPE_FINGERPRINT>
11062470 55 18273213136129396200
12932764 1 17632024129745473424
14325111 11 18410856581547162248
177051 138 18335701628841491862
190213 19 17748827436492588856
20211469 26 18335144167777043231
20279233 1 17458061594668761196
20645464 45 17095517405328678821
20828058 21 18259700099769562964
20828058 44 18335986445529475746
21061003 4 16950564359169463817
21293036 1 16558752286852447906
22485316 2 18412829118360911562
3248919 1 17313379058619554176

> <PUBCHEM_SHAPE_MULTIPOLES>
180.23
7.85
1.28
0.65
6.06
0
-0.01
1.43
0.18
-1.47
0.02
0
0
-0.1

> <PUBCHEM_SHAPE_SELFOVERLAP>
314.919

> <PUBCHEM_SHAPE_VOLUME>
119.4

> <PUBCHEM_COORDINATE_TYPE>
2
5
10

$$$$

