51090974
  -OEChem-06241223013D

 45 46  0     1  0  0  0  0  0999 V2000
    5.8813    0.2035   -0.3263 S   0  0  0  0  0  0  0  0  0  0  0  0
   -1.1114    4.1602   -0.0215 O   0  0  0  0  0  0  0  0  0  0  0  0
   -0.3195   -1.4719    0.7495 O   0  0  0  0  0  0  0  0  0  0  0  0
    3.2582    1.1986   -1.2381 O   0  0  0  0  0  0  0  0  0  0  0  0
   -1.4691    0.4995    0.3590 N   0  0  0  0  0  0  0  0  0  0  0  0
    1.9321   -0.4931   -0.3676 N   0  0  0  0  0  0  0  0  0  0  0  0
   -4.4646    0.0325   -0.2019 N   0  0  0  0  0  0  0  0  0  0  0  0
    0.6700    0.0199   -0.8437 C   0  0  2  0  0  0  0  0  0  0  0  0
   -1.6040    1.8224   -0.2465 C   0  0  0  0  0  0  0  0  0  0  0  0
   -0.4006   -0.3836    0.1691 C   0  0  0  0  0  0  0  0  0  0  0  0
   -2.5410    0.1344    1.2783 C   0  0  0  0  0  0  0  0  0  0  0  0
   -0.9858    2.9003    0.6252 C   0  0  0  0  0  0  0  0  0  0  0  0
    0.3506   -0.5399   -2.2222 C   0  0  0  0  0  0  0  0  0  0  0  0
   -3.6200   -0.6570    0.5973 C   0  0  0  0  0  0  0  0  0  0  0  0
    3.1367    0.1505   -0.6095 C   0  0  0  0  0  0  0  0  0  0  0  0
   -3.6980   -2.0234    0.8130 C   0  0  0  0  0  0  0  0  0  0  0  0
    4.3497   -0.5199   -0.0746 C   0  0  0  0  0  0  0  0  0  0  0  0
   -4.7078   -2.7275    0.1668 C   0  0  0  0  0  0  0  0  0  0  0  0
   -5.4334   -0.6854   -0.8131 C   0  0  0  0  0  0  0  0  0  0  0  0
   -5.5961   -2.0532   -0.6637 C   0  0  0  0  0  0  0  0  0  0  0  0
   -0.5406    5.2042    0.7555 C   0  0  0  0  0  0  0  0  0  0  0  0
    4.4446   -1.6986    0.6321 C   0  0  0  0  0  0  0  0  0  0  0  0
    5.7924   -2.0117    0.9717 C   0  0  0  0  0  0  0  0  0  0  0  0
    6.6763   -1.0607    0.5115 C   0  0  0  0  0  0  0  0  0  0  0  0
    0.7693    1.1053   -0.9008 H   0  0  0  0  0  0  0  0  0  0  0  0
   -2.6637    2.0427   -0.4212 H   0  0  0  0  0  0  0  0  0  0  0  0
   -1.1491    1.8378   -1.2412 H   0  0  0  0  0  0  0  0  0  0  0  0
   -2.9733    1.0379    1.7247 H   0  0  0  0  0  0  0  0  0  0  0  0
   -2.1169   -0.4407    2.1106 H   0  0  0  0  0  0  0  0  0  0  0  0
    0.0746    2.6850    0.8027 H   0  0  0  0  0  0  0  0  0  0  0  0
   -1.4898    2.9390    1.5981 H   0  0  0  0  0  0  0  0  0  0  0  0
    1.1210   -0.2602   -2.9486 H   0  0  0  0  0  0  0  0  0  0  0  0
   -0.6134   -0.1691   -2.5853 H   0  0  0  0  0  0  0  0  0  0  0  0
    0.2955   -1.6345   -2.2023 H   0  0  0  0  0  0  0  0  0  0  0  0
    1.9174   -1.3724    0.1382 H   0  0  0  0  0  0  0  0  0  0  0  0
   -3.0017   -2.5435    1.4619 H   0  0  0  0  0  0  0  0  0  0  0  0
   -4.8024   -3.7997    0.3097 H   0  0  0  0  0  0  0  0  0  0  0  0
   -6.0999   -0.1129   -1.4497 H   0  0  0  0  0  0  0  0  0  0  0  0
   -6.3908   -2.5817   -1.1777 H   0  0  0  0  0  0  0  0  0  0  0  0
   -1.0503    5.2873    1.7203 H   0  0  0  0  0  0  0  0  0  0  0  0
    0.5288    5.0288    0.9074 H   0  0  0  0  0  0  0  0  0  0  0  0
   -0.6659    6.1450    0.2128 H   0  0  0  0  0  0  0  0  0  0  0  0
    3.6060   -2.3250    0.9060 H   0  0  0  0  0  0  0  0  0  0  0  0
    6.0983   -2.8898    1.5254 H   0  0  0  0  0  0  0  0  0  0  0  0
    7.7509   -1.0479    0.6271 H   0  0  0  0  0  0  0  0  0  0  0  0
  1 17  1  0  0  0  0
  1 24  1  0  0  0  0
  2 12  1  0  0  0  0
  2 21  1  0  0  0  0
  3 10  2  0  0  0  0
  4 15  2  0  0  0  0
  5  9  1  0  0  0  0
  5 10  1  0  0  0  0
  5 11  1  0  0  0  0
  6  8  1  0  0  0  0
  6 15  1  0  0  0  0
  6 35  1  0  0  0  0
  7 14  1  0  0  0  0
  7 19  2  0  0  0  0
  8 10  1  0  0  0  0
  8 13  1  0  0  0  0
  8 25  1  0  0  0  0
  9 12  1  0  0  0  0
  9 26  1  0  0  0  0
  9 27  1  0  0  0  0
 11 14  1  0  0  0  0
 11 28  1  0  0  0  0
 11 29  1  0  0  0  0
 12 30  1  0  0  0  0
 12 31  1  0  0  0  0
 13 32  1  0  0  0  0
 13 33  1  0  0  0  0
 13 34  1  0  0  0  0
 14 16  2  0  0  0  0
 15 17  1  0  0  0  0
 16 18  1  0  0  0  0
 16 36  1  0  0  0  0
 17 22  2  0  0  0  0
 18 20  2  0  0  0  0
 18 37  1  0  0  0  0
 19 20  1  0  0  0  0
 19 38  1  0  0  0  0
 20 39  1  0  0  0  0
 21 40  1  0  0  0  0
 21 41  1  0  0  0  0
 21 42  1  0  0  0  0
 22 23  1  0  0  0  0
 22 43  1  0  0  0  0
 23 24  2  0  0  0  0
 23 44  1  0  0  0  0
 24 45  1  0  0  0  0
M  END
> <PUBCHEM_COMPOUND_CID>
51090974

> <PUBCHEM_CONFORMER_RMSD>
1

> <PUBCHEM_CONFORMER_DIVERSEORDER>
1
205
127
166
177
241
119
122
171
139
178
72
152
149
51
199
248
17
75
175
63
206
103
25
162
229
267
188
252
209
255
202
99
148
121
234
237
129
190
124
153
257
265
186
38
172
262
246
110
167
31
34
187
242
154
269
243
69
196
204
113
197
93
200
214
160
42
261
212
250
203
198
180
48
195
131
216
251
24
254
146
256
239
176
91
97
41
266
245
117
141
173
88
258
112
156
101
136
94
236
26
68
170
80
14
66
161
185
140
182
120
90
126
89
192
92
128
163
223
235
217
194
144
70
201
98
228
32
211
76
104
215
44
9
143
56
259
115
22
210
59
102
151
134
193
85
238
147
142
33
183
23
107
230
109
6
71
184
65
58
253
118
21
45
218
158
220
240
145
260
12
40
35
13
116
27
43
225
3
233
165
64
96
181
135
95
61
189
231
208
174
268
37
54
232
86
77
137
7
168
15
249
36
47
46
133
221
78
57
16
263
74
150
179
155
222
219
123
8
29
157
39
105
60
83
4
67
52
5
226
106
10
207
138
244
19
224
73
84
159
247
2
30
191
55
100
125
81
53
28
114
18
164
82
213
130
227
11
62
50
49
132
108
79
264
111
87
20
169

> <PUBCHEM_MMFF94_PARTIAL_CHARGES>
31
1 -0.08
10 0.57
11 0.44
12 0.28
14 0.17
15 0.71
16 -0.15
17 -0.05
18 -0.15
19 0.16
2 -0.56
20 -0.15
21 0.28
22 -0.15
23 -0.15
24 -0.11
3 -0.57
35 0.37
36 0.15
37 0.15
38 0.15
39 0.15
4 -0.57
43 0.15
44 0.15
45 0.15
5 -0.66
6 -0.73
7 -0.62
8 0.36
9 0.3

> <PUBCHEM_EFFECTIVE_ROTOR_COUNT>
10

> <PUBCHEM_PHARMACOPHORE_FEATURES>
7
1 2 acceptor
1 3 acceptor
1 4 acceptor
1 6 donor
1 7 acceptor
5 1 17 22 23 24 rings
6 7 14 16 18 19 20 rings

> <PUBCHEM_HEAVY_ATOM_COUNT>
24

> <PUBCHEM_ATOM_DEF_STEREO_COUNT>
0

> <PUBCHEM_ATOM_UDEF_STEREO_COUNT>
1

> <PUBCHEM_BOND_DEF_STEREO_COUNT>
0

> <PUBCHEM_BOND_UDEF_STEREO_COUNT>
0

> <PUBCHEM_ISOTOPIC_ATOM_COUNT>
0

> <PUBCHEM_COMPONENT_COUNT>
1

> <PUBCHEM_CACTVS_TAUTO_COUNT>
2

> <PUBCHEM_CONFORMER_ID>
030B961E00000001

> <PUBCHEM_MMFF94_ENERGY>
53.5505

> <PUBCHEM_FEATURE_SELFOVERLAP>
35.52

> <PUBCHEM_SHAPE_FINGERPRINT>
12107183 9 17478333493120568314
12166972 35 17917988335143721711
12236239 1 18343865502482939558
12403260 363 18341609339272294212
12516196 113 18410576149852184034
12596602 18 18187364346644179434
12788726 201 18339910572400862286
12839892 36 18186800296588773606
12892183 10 18337678624348083614
12895836 83 9151167649741324414
13533116 47 18343584023828102362
13583140 156 17823433750071002850
13782708 43 17313648460970938430
14068700 675 18272654549725656300
14784336 7 18272939301857489818
15183329 4 15698010629797314587
15420108 30 17479741958245533584
167882 2 17977381630000385377
16992727 255 18127983103936591037
17349148 13 18131058338214707390
17857418 61 18272370880142314402
18222031 100 18114734941443889909
18927931 339 18411127061281468887
200 152 18273495663104237959
20028762 73 18411703184280142178
20681677 155 10015575095806771940
21304303 282 17908717468222024757
22079108 93 14851606566050862758
22224240 67 15213298608674182391
23402539 116 18408040714967447439
23559900 14 18059013873923094512
23929065 36 18266476458161212088
255183 313 18048298227590581353
3004659 81 17989492896350334666
3633792 109 17632580444079716518
5283173 99 18131078164263547149
5385378 56 10375334248411855533
5924683 9 18340204201808135496
5969126 39 18260841418430105005
6913067 236 17822013124611929079
7495541 125 18040999505852975794

> <PUBCHEM_SHAPE_MULTIPOLES>
465.21
14.6
4.12
1.23
11.88
8.03
-0.4
-13.01
0.88
-3.28
1.33
0.08
-0.16
-1.14

> <PUBCHEM_SHAPE_SELFOVERLAP>
947.429

> <PUBCHEM_SHAPE_VOLUME>
271.6

> <PUBCHEM_COORDINATE_TYPE>
2
5
10

$$$$

