17395942
  -OEChem-06241222532D

 33 34  0     0  0  0  0  0  0999 V2000
    4.2320    0.8924    0.0000 S   0  0  0  0  0  0  0  0  0  0  0  0
    2.8699    4.3375    0.0000 S   0  0  0  0  0  0  0  0  0  0  0  0
    2.0000   -3.6465    0.0000 F   0  0  0  0  0  0  0  0  0  0  0  0
    3.7320   -4.6465    0.0000 O   0  0  0  0  0  0  0  0  0  0  0  0
    4.0455    2.7194    0.0000 O   0  0  0  0  0  0  0  0  0  0  0  0
    2.9230   -0.0587    0.0000 N   0  0  0  0  0  0  0  0  0  0  0  0
    2.6443    1.7014    0.0000 N   0  0  0  0  0  0  0  0  0  0  0  0
    3.7320   -1.6465    0.0000 C   0  0  0  0  0  0  0  0  0  0  0  0
    3.7320   -0.6465    0.0000 C   0  0  0  0  0  0  0  0  0  0  0  0
    2.8660   -2.1465    0.0000 C   0  0  0  0  0  0  0  0  0  0  0  0
    4.5981   -2.1465    0.0000 C   0  0  0  0  0  0  0  0  0  0  0  0
    3.2320    0.8924    0.0000 C   0  0  0  0  0  0  0  0  0  0  0  0
    3.7320   -3.6465    0.0000 C   0  0  0  0  0  0  0  0  0  0  0  0
    2.8660   -3.1465    0.0000 C   0  0  0  0  0  0  0  0  0  0  0  0
    4.5981   -3.1465    0.0000 C   0  0  0  0  0  0  0  0  0  0  0  0
    4.5411   -0.0587    0.0000 C   0  0  0  0  0  0  0  0  0  0  0  0
    3.0510    2.6149    0.0000 C   0  0  0  0  0  0  0  0  0  0  0  0
    2.4632    3.4239    0.0000 C   0  0  0  0  0  0  0  0  0  0  0  0
    4.5981   -5.1465    0.0000 C   0  0  0  0  0  0  0  0  0  0  0  0
    2.2822    5.1465    0.0000 C   0  0  0  0  0  0  0  0  0  0  0  0
    2.3291   -1.8365    0.0000 H   0  0  0  0  0  0  0  0  0  0  0  0
    5.1350   -1.8365    0.0000 H   0  0  0  0  0  0  0  0  0  0  0  0
    5.1350   -3.4565    0.0000 H   0  0  0  0  0  0  0  0  0  0  0  0
    5.1307   -0.2503    0.0000 H   0  0  0  0  0  0  0  0  0  0  0  0
    2.0277    1.6366    0.0000 H   0  0  0  0  0  0  0  0  0  0  0  0
    1.9492    3.7706    0.0000 H   0  0  0  0  0  0  0  0  0  0  0  0
    2.0325    2.9779    0.0000 H   0  0  0  0  0  0  0  0  0  0  0  0
    4.2881   -5.6834    0.0000 H   0  0  0  0  0  0  0  0  0  0  0  0
    5.1350   -5.4565    0.0000 H   0  0  0  0  0  0  0  0  0  0  0  0
    4.9081   -4.6096    0.0000 H   0  0  0  0  0  0  0  0  0  0  0  0
    2.7838    5.5109    0.0000 H   0  0  0  0  0  0  0  0  0  0  0  0
    1.9177    5.6481    0.0000 H   0  0  0  0  0  0  0  0  0  0  0  0
    1.7806    4.7821    0.0000 H   0  0  0  0  0  0  0  0  0  0  0  0
  1 12  1  0  0  0  0
  1 16  1  0  0  0  0
  2 18  1  0  0  0  0
  2 20  1  0  0  0  0
  3 14  1  0  0  0  0
  4 13  1  0  0  0  0
  4 19  1  0  0  0  0
  5 17  2  0  0  0  0
  6  9  1  0  0  0  0
  6 12  2  0  0  0  0
  7 12  1  0  0  0  0
  7 17  1  0  0  0  0
  7 25  1  0  0  0  0
  8  9  1  0  0  0  0
  8 10  2  0  0  0  0
  8 11  1  0  0  0  0
  9 16  2  0  0  0  0
 10 14  1  0  0  0  0
 10 21  1  0  0  0  0
 11 15  2  0  0  0  0
 11 22  1  0  0  0  0
 13 14  2  0  0  0  0
 13 15  1  0  0  0  0
 15 23  1  0  0  0  0
 16 24  1  0  0  0  0
 17 18  1  0  0  0  0
 18 26  1  0  0  0  0
 18 27  1  0  0  0  0
 19 28  1  0  0  0  0
 19 29  1  0  0  0  0
 19 30  1  0  0  0  0
 20 31  1  0  0  0  0
 20 32  1  0  0  0  0
 20 33  1  0  0  0  0
M  END
> <PUBCHEM_COMPOUND_CID>
17395942

> <PUBCHEM_COMPOUND_CANONICALIZED>
1

> <PUBCHEM_CACTVS_COMPLEXITY>
336

> <PUBCHEM_CACTVS_HBOND_ACCEPTOR>
6

> <PUBCHEM_CACTVS_HBOND_DONOR>
1

> <PUBCHEM_CACTVS_ROTATABLE_BOND>
5

> <PUBCHEM_CACTVS_SUBSKEYS>
AAADccBzMQBgAAAAAAAAAAAAAAAAAWAAAAAwAAAAAAAAAAABwAAAHwQQAAAADAyF3gqzl5LIFAisAyVydACC+KlhKjkJiDQ2LJiMJqKkuRuEMChs0RMIqCeQ0IMOIAAAAAAAAABAAAAAAAAAAAAAAAAAAA==

> <PUBCHEM_IUPAC_OPENEYE_NAME>
N-[4-(3-fluoro-4-methoxy-phenyl)thiazol-2-yl]-2-methylsulfanyl-acetamide

> <PUBCHEM_IUPAC_CAS_NAME>
N-[4-(3-fluoro-4-methoxyphenyl)-2-thiazolyl]-2-(methylthio)acetamide

> <PUBCHEM_IUPAC_NAME>
N-[4-(3-fluoro-4-methoxyphenyl)-1,3-thiazol-2-yl]-2-methylsulfanylacetamide

> <PUBCHEM_IUPAC_SYSTEMATIC_NAME>
N-[4-(3-fluoranyl-4-methoxy-phenyl)-1,3-thiazol-2-yl]-2-methylsulfanyl-ethanamide

> <PUBCHEM_IUPAC_TRADITIONAL_NAME>
N-[4-(3-fluoro-4-methoxy-phenyl)thiazol-2-yl]-2-(methylthio)acetamide

> <PUBCHEM_IUPAC_INCHI>
InChI=1S/C13H13FN2O2S2/c1-18-11-4-3-8(5-9(11)14)10-6-20-13(15-10)16-12(17)7-19-2/h3-6H,7H2,1-2H3,(H,15,16,17)

> <PUBCHEM_IUPAC_INCHIKEY>
ONOLDRMVXJTZGE-UHFFFAOYSA-N

> <PUBCHEM_XLOGP3_AA>
2.9

> <PUBCHEM_EXACT_MASS>
312.040248

> <PUBCHEM_MOLECULAR_FORMULA>
C13H13FN2O2S2

> <PUBCHEM_MOLECULAR_WEIGHT>
312.382923

> <PUBCHEM_OPENEYE_CAN_SMILES>
COC1=C(C=C(C=C1)C2=CSC(=N2)NC(=O)CSC)F

> <PUBCHEM_OPENEYE_ISO_SMILES>
COC1=C(C=C(C=C1)C2=CSC(=N2)NC(=O)CSC)F

> <PUBCHEM_CACTVS_TPSA>
105

> <PUBCHEM_MONOISOTOPIC_WEIGHT>
312.040248

> <PUBCHEM_TOTAL_CHARGE>
0

> <PUBCHEM_HEAVY_ATOM_COUNT>
20

> <PUBCHEM_ATOM_DEF_STEREO_COUNT>
0

> <PUBCHEM_ATOM_UDEF_STEREO_COUNT>
0

> <PUBCHEM_BOND_DEF_STEREO_COUNT>
0

> <PUBCHEM_BOND_UDEF_STEREO_COUNT>
0

> <PUBCHEM_ISOTOPIC_ATOM_COUNT>
0

> <PUBCHEM_COMPONENT_COUNT>
1

> <PUBCHEM_CACTVS_TAUTO_COUNT>
5

> <PUBCHEM_COORDINATE_TYPE>
1
5
255

> <PUBCHEM_BONDANNOTATIONS>
1  12  8
1  16  8
10  14  8
11  15  8
13  14  8
13  15  8
6  12  8
6  9  8
8  10  8
8  11  8
9  16  8

$$$$

