11951
  -OEChem-06261206193D

 22 23  0     0  0  0  0  0  0999 V2000
    3.6547   -1.1672    0.0004 N   0  0  0  0  0  0  0  0  0  0  0  0
   -3.6547   -1.1673   -0.0004 N   0  0  0  0  0  0  0  0  0  0  0  0
   -0.0001   -0.4741    0.0000 C   0  0  0  0  0  0  0  0  0  0  0  0
    0.0000    0.9411    0.0000 C   0  0  0  0  0  0  0  0  0  0  0  0
    1.2250   -1.1610   -0.0001 C   0  0  0  0  0  0  0  0  0  0  0  0
   -1.2250   -1.1609    0.0001 C   0  0  0  0  0  0  0  0  0  0  0  0
    1.2250    1.6278   -0.0001 C   0  0  0  0  0  0  0  0  0  0  0  0
   -1.2251    1.6279    0.0002 C   0  0  0  0  0  0  0  0  0  0  0  0
    2.4327   -0.4624   -0.0003 C   0  0  0  0  0  0  0  0  0  0  0  0
   -2.4326   -0.4625    0.0002 C   0  0  0  0  0  0  0  0  0  0  0  0
    2.4327    0.9293   -0.0003 C   0  0  0  0  0  0  0  0  0  0  0  0
   -2.4327    0.9293    0.0002 C   0  0  0  0  0  0  0  0  0  0  0  0
    1.2356   -2.2500    0.0001 H   0  0  0  0  0  0  0  0  0  0  0  0
   -1.2356   -2.2499    0.0000 H   0  0  0  0  0  0  0  0  0  0  0  0
    1.2488    2.7157    0.0000 H   0  0  0  0  0  0  0  0  0  0  0  0
   -1.2489    2.7158    0.0002 H   0  0  0  0  0  0  0  0  0  0  0  0
    3.3672    1.4846   -0.0003 H   0  0  0  0  0  0  0  0  0  0  0  0
   -3.3672    1.4845    0.0002 H   0  0  0  0  0  0  0  0  0  0  0  0
    4.5306   -0.6616   -0.0009 H   0  0  0  0  0  0  0  0  0  0  0  0
    3.6559   -2.1785   -0.0008 H   0  0  0  0  0  0  0  0  0  0  0  0
   -4.5305   -0.6617    0.0008 H   0  0  0  0  0  0  0  0  0  0  0  0
   -3.6559   -2.1786    0.0007 H   0  0  0  0  0  0  0  0  0  0  0  0
  1  9  1  0  0  0  0
  1 19  1  0  0  0  0
  1 20  1  0  0  0  0
  2 10  1  0  0  0  0
  2 21  1  0  0  0  0
  2 22  1  0  0  0  0
  3  4  2  0  0  0  0
  3  5  1  0  0  0  0
  3  6  1  0  0  0  0
  4  7  1  0  0  0  0
  4  8  1  0  0  0  0
  5  9  2  0  0  0  0
  5 13  1  0  0  0  0
  6 10  2  0  0  0  0
  6 14  1  0  0  0  0
  7 11  2  0  0  0  0
  7 15  1  0  0  0  0
  8 12  2  0  0  0  0
  8 16  1  0  0  0  0
  9 11  1  0  0  0  0
 10 12  1  0  0  0  0
 11 17  1  0  0  0  0
 12 18  1  0  0  0  0
M  END
> <PUBCHEM_COMPOUND_CID>
11951

> <PUBCHEM_CONFORMER_RMSD>
0.4

> <PUBCHEM_CONFORMER_DIVERSEORDER>
1

> <PUBCHEM_MMFF94_PARTIAL_CHARGES>
20
1 -0.9
10 0.1
11 -0.15
12 -0.15
13 0.15
14 0.15
15 0.15
16 0.15
17 0.15
18 0.15
19 0.4
2 -0.9
20 0.4
21 0.4
22 0.4
5 -0.15
6 -0.15
7 -0.15
8 -0.15
9 0.1

> <PUBCHEM_EFFECTIVE_ROTOR_COUNT>
0

> <PUBCHEM_PHARMACOPHORE_FEATURES>
6
1 1 cation
1 1 donor
1 2 cation
1 2 donor
6 3 4 5 7 9 11 rings
6 3 4 6 8 10 12 rings

> <PUBCHEM_HEAVY_ATOM_COUNT>
12

> <PUBCHEM_ATOM_DEF_STEREO_COUNT>
0

> <PUBCHEM_ATOM_UDEF_STEREO_COUNT>
0

> <PUBCHEM_BOND_DEF_STEREO_COUNT>
0

> <PUBCHEM_BOND_UDEF_STEREO_COUNT>
0

> <PUBCHEM_ISOTOPIC_ATOM_COUNT>
0

> <PUBCHEM_COMPONENT_COUNT>
1

> <PUBCHEM_CACTVS_TAUTO_COUNT>
1

> <PUBCHEM_CONFORMER_ID>
00002EAF00000001

> <PUBCHEM_MMFF94_ENERGY>
54.394

> <PUBCHEM_FEATURE_SELFOVERLAP>
30.472

> <PUBCHEM_SHAPE_FINGERPRINT>
10967382 1 18266741277095765190
11206711 2 18342175608834398637
11471102 20 18411142398772732573
11769659 78 18410578387493059463
12032990 46 18410851066376916803
14128692 85 18410289220346005252
14325111 11 18410573980867332160
16945 1 18410855464423194052
17844478 74 18131344190205827433
19973954 147 18410572885640115680
200 152 18041010535481790727
20201158 50 18409731802226136647
20645477 70 18410016498950838327
20871998 184 18114747130445089879
20871998 22 18261383511795496510
21501502 16 18410568487598918309
21501925 9 18339372898129576410
23402655 69 18265350563372003357
23463225 33 18412262869703840806
23552423 10 18272368654958436076
23559900 14 18047194335375354294
2748010 2 18410580586521771796
369184 2 18334296465618130657
5084963 1 18334575745734697441
528886 8 18338241594837468169
7364860 26 18262799549928850392
8809292 202 18201151075035707243

> <PUBCHEM_SHAPE_MULTIPOLES>
236.99
4.94
1.76
0.6
0
0.33
0
-1.65
0
0
0
0
0.02
0

> <PUBCHEM_SHAPE_SELFOVERLAP>
520.808

> <PUBCHEM_SHAPE_VOLUME>
128.7

> <PUBCHEM_COORDINATE_TYPE>
2
5
10

$$$$

