11923
  -OEChem-06261206173D

 18 18  0     0  0  0  0  0  0999 V2000
    1.5835   -2.6479   -0.0004 O   0  0  0  0  0  0  0  0  0  0  0  0
   -2.7856    0.7746   -0.0011 O   0  5  0  0  0  0  0  0  0  0  0  0
   -2.0727   -1.3017   -0.0002 O   0  0  0  0  0  0  0  0  0  0  0  0
   -1.8562   -0.0669    0.0000 N   0  3  0  0  0  0  0  0  0  0  0  0
    0.5562   -0.5029    0.0004 C   0  0  0  0  0  0  0  0  0  0  0  0
   -0.5110    0.3951    0.0011 C   0  0  0  0  0  0  0  0  0  0  0  0
    0.3289   -1.9804    0.0005 C   0  0  0  0  0  0  0  0  0  0  0  0
    1.8677   -0.0277   -0.0004 C   0  0  0  0  0  0  0  0  0  0  0  0
   -0.2670    1.7684    0.0008 C   0  0  0  0  0  0  0  0  0  0  0  0
    2.1117    1.3457   -0.0006 C   0  0  0  0  0  0  0  0  0  0  0  0
    1.0444    2.2438   -0.0002 C   0  0  0  0  0  0  0  0  0  0  0  0
   -0.1835   -2.3061    0.9107 H   0  0  0  0  0  0  0  0  0  0  0  0
   -0.1843   -2.3060   -0.9094 H   0  0  0  0  0  0  0  0  0  0  0  0
    2.7343   -0.6816   -0.0009 H   0  0  0  0  0  0  0  0  0  0  0  0
   -1.0707    2.5003    0.0010 H   0  0  0  0  0  0  0  0  0  0  0  0
    3.1326    1.7167   -0.0014 H   0  0  0  0  0  0  0  0  0  0  0  0
    1.2351    3.3130   -0.0005 H   0  0  0  0  0  0  0  0  0  0  0  0
    1.4007   -3.6031   -0.0003 H   0  0  0  0  0  0  0  0  0  0  0  0
  1  7  1  0  0  0  0
  1 18  1  0  0  0  0
  2  4  1  0  0  0  0
  3  4  2  0  0  0  0
  4  6  1  0  0  0  0
  5  6  1  0  0  0  0
  5  7  1  0  0  0  0
  5  8  2  0  0  0  0
  6  9  2  0  0  0  0
  7 12  1  0  0  0  0
  7 13  1  0  0  0  0
  8 10  1  0  0  0  0
  8 14  1  0  0  0  0
  9 11  1  0  0  0  0
  9 15  1  0  0  0  0
 10 11  2  0  0  0  0
 10 16  1  0  0  0  0
 11 17  1  0  0  0  0
M  CHG  2   2  -1   4   1
M  END
> <PUBCHEM_COMPOUND_CID>
11923

> <PUBCHEM_CONFORMER_RMSD>
0.4

> <PUBCHEM_CONFORMER_DIVERSEORDER>
1
2
3

> <PUBCHEM_MMFF94_PARTIAL_CHARGES>
16
1 -0.68
10 -0.15
11 -0.15
14 0.15
15 0.15
16 0.15
17 0.15
18 0.4
2 -0.52
3 -0.52
4 0.91
5 -0.14
6 0.13
7 0.42
8 -0.15
9 -0.15

> <PUBCHEM_EFFECTIVE_ROTOR_COUNT>
2

> <PUBCHEM_PHARMACOPHORE_FEATURES>
6
1 1 acceptor
1 1 donor
1 2 acceptor
1 2 anion
1 3 acceptor
6 5 6 8 9 10 11 rings

> <PUBCHEM_HEAVY_ATOM_COUNT>
11

> <PUBCHEM_ATOM_DEF_STEREO_COUNT>
0

> <PUBCHEM_ATOM_UDEF_STEREO_COUNT>
0

> <PUBCHEM_BOND_DEF_STEREO_COUNT>
0

> <PUBCHEM_BOND_UDEF_STEREO_COUNT>
0

> <PUBCHEM_ISOTOPIC_ATOM_COUNT>
0

> <PUBCHEM_COMPONENT_COUNT>
1

> <PUBCHEM_CACTVS_TAUTO_COUNT>
1

> <PUBCHEM_CONFORMER_ID>
00002E9300000001

> <PUBCHEM_MMFF94_ENERGY>
40.0049

> <PUBCHEM_FEATURE_SELFOVERLAP>
30.527

> <PUBCHEM_SHAPE_FINGERPRINT>
1 1 18410858715755693821
16945 1 18410856598305350053
18185500 45 18337109072143698535
193761 8 17978510063768705344
21040471 1 18050285864838792928
23552423 10 18411694400432568677
23559900 14 18046891707848741980
241688 4 17762900274330890064
2748010 2 18267584606888533468
5084963 1 17898000235742057945
528886 8 18410297964794080865
66348 1 18337669840195685238

> <PUBCHEM_SHAPE_MULTIPOLES>
203.79
2.9
2.65
0.58
0.6
1.6
0
-1.14
0
-0.02
0
-0.06
-0.01
0

> <PUBCHEM_SHAPE_SELFOVERLAP>
427.496

> <PUBCHEM_SHAPE_VOLUME>
115.2

> <PUBCHEM_COORDINATE_TYPE>
2
5
10

$$$$

