17395839
  -OEChem-06241222522D

 27 28  0     0  0  0  0  0  0999 V2000
    8.7665    1.5185    0.0000 S   0  0  0  0  0  0  0  0  0  0  0  0
    3.7601   -1.1908    0.0000 S   0  0  0  0  0  0  0  0  0  0  0  0
    9.3424   -1.0042    0.0000 O   0  0  0  0  0  0  0  0  0  0  0  0
    6.0554    0.7353    0.0000 O   0  0  0  0  0  0  0  0  0  0  0  0
    7.9575    0.1172    0.0000 N   0  0  0  0  0  0  0  0  0  0  0  0
    5.5202   -0.9120    0.0000 N   0  0  0  0  0  0  0  0  0  0  0  0
    4.2601    0.3480    0.0000 N   0  0  0  0  0  0  0  0  0  0  0  0
    7.8530    1.1117    0.0000 C   0  0  0  0  0  0  0  0  0  0  0  0
    7.2144   -0.5519    0.0000 C   0  0  0  0  0  0  0  0  0  0  0  0
    8.9356   -0.0907    0.0000 C   0  0  0  0  0  0  0  0  0  0  0  0
    9.4356    0.7753    0.0000 C   0  0  0  0  0  0  0  0  0  0  0  0
    6.2633   -0.2429    0.0000 C   0  0  0  0  0  0  0  0  0  0  0  0
    4.5691   -0.6030    0.0000 C   0  0  0  0  0  0  0  0  0  0  0  0
    2.9511   -0.6030    0.0000 C   0  0  0  0  0  0  0  0  0  0  0  0
    3.2601    0.3480    0.0000 C   0  0  0  0  0  0  0  0  0  0  0  0
    2.0000   -0.9120    0.0000 C   0  0  0  0  0  0  0  0  0  0  0  0
    7.6614    1.7014    0.0000 H   0  0  0  0  0  0  0  0  0  0  0  0
    7.2465    0.9828    0.0000 H   0  0  0  0  0  0  0  0  0  0  0  0
    6.9233   -1.0993    0.0000 H   0  0  0  0  0  0  0  0  0  0  0  0
    7.7029   -0.9336    0.0000 H   0  0  0  0  0  0  0  0  0  0  0  0
    9.9372    0.4109    0.0000 H   0  0  0  0  0  0  0  0  0  0  0  0
    9.8505    1.2361    0.0000 H   0  0  0  0  0  0  0  0  0  0  0  0
    5.6490   -1.5185    0.0000 H   0  0  0  0  0  0  0  0  0  0  0  0
    2.8956    0.8496    0.0000 H   0  0  0  0  0  0  0  0  0  0  0  0
    1.8084   -0.3224    0.0000 H   0  0  0  0  0  0  0  0  0  0  0  0
    1.4103   -1.1036    0.0000 H   0  0  0  0  0  0  0  0  0  0  0  0
    2.1916   -1.5017    0.0000 H   0  0  0  0  0  0  0  0  0  0  0  0
  1  8  1  0  0  0  0
  1 11  1  0  0  0  0
  2 13  1  0  0  0  0
  2 14  1  0  0  0  0
  3 10  2  0  0  0  0
  4 12  2  0  0  0  0
  5  8  1  0  0  0  0
  5  9  1  0  0  0  0
  5 10  1  0  0  0  0
  6 12  1  0  0  0  0
  6 13  1  0  0  0  0
  6 23  1  0  0  0  0
  7 13  2  0  0  0  0
  7 15  1  0  0  0  0
  8 17  1  0  0  0  0
  8 18  1  0  0  0  0
  9 12  1  0  0  0  0
  9 19  1  0  0  0  0
  9 20  1  0  0  0  0
 10 11  1  0  0  0  0
 11 21  1  0  0  0  0
 11 22  1  0  0  0  0
 14 15  2  0  0  0  0
 14 16  1  0  0  0  0
 15 24  1  0  0  0  0
 16 25  1  0  0  0  0
 16 26  1  0  0  0  0
 16 27  1  0  0  0  0
M  END
> <PUBCHEM_COMPOUND_CID>
17395839

> <PUBCHEM_COMPOUND_CANONICALIZED>
1

> <PUBCHEM_CACTVS_COMPLEXITY>
301

> <PUBCHEM_CACTVS_HBOND_ACCEPTOR>
5

> <PUBCHEM_CACTVS_HBOND_DONOR>
1

> <PUBCHEM_CACTVS_ROTATABLE_BOND>
3

> <PUBCHEM_CACTVS_SUBSKEYS>
AAADccBzMABgAAAAAAAAAAAAAAAAAWLAAAAAAAAAAAAAAAABgAAAHgQQAAAACADF0gSvkRPIEAisABF3dAAA8KlRCDlBUAyoQACAQABACSAUAAAIFwLAACAAAAAAAAAAAAAAAAAAAAAAAAAAAAAAAAAAAA==

> <PUBCHEM_IUPAC_OPENEYE_NAME>
N-(5-methylthiazol-2-yl)-2-(4-oxothiazolidin-3-yl)acetamide

> <PUBCHEM_IUPAC_CAS_NAME>
N-(5-methyl-2-thiazolyl)-2-(4-oxo-3-thiazolidinyl)acetamide

> <PUBCHEM_IUPAC_NAME>
N-(5-methyl-1,3-thiazol-2-yl)-2-(4-oxo-1,3-thiazolidin-3-yl)acetamide

> <PUBCHEM_IUPAC_SYSTEMATIC_NAME>
N-(5-methyl-1,3-thiazol-2-yl)-2-(4-oxidanylidene-1,3-thiazolidin-3-yl)ethanamide

> <PUBCHEM_IUPAC_TRADITIONAL_NAME>
2-(4-ketothiazolidin-3-yl)-N-(5-methylthiazol-2-yl)acetamide

> <PUBCHEM_IUPAC_INCHI>
InChI=1S/C9H11N3O2S2/c1-6-2-10-9(16-6)11-7(13)3-12-5-15-4-8(12)14/h2H,3-5H2,1H3,(H,10,11,13)

> <PUBCHEM_IUPAC_INCHIKEY>
IOSHQRSUDWEOBR-UHFFFAOYSA-N

> <PUBCHEM_XLOGP3_AA>
0.9

> <PUBCHEM_EXACT_MASS>
257.029269

> <PUBCHEM_MOLECULAR_FORMULA>
C9H11N3O2S2

> <PUBCHEM_MOLECULAR_WEIGHT>
257.33254

> <PUBCHEM_OPENEYE_CAN_SMILES>
CC1=CN=C(S1)NC(=O)CN2CSCC2=O

> <PUBCHEM_OPENEYE_ISO_SMILES>
CC1=CN=C(S1)NC(=O)CN2CSCC2=O

> <PUBCHEM_CACTVS_TPSA>
116

> <PUBCHEM_MONOISOTOPIC_WEIGHT>
257.029269

> <PUBCHEM_TOTAL_CHARGE>
0

> <PUBCHEM_HEAVY_ATOM_COUNT>
16

> <PUBCHEM_ATOM_DEF_STEREO_COUNT>
0

> <PUBCHEM_ATOM_UDEF_STEREO_COUNT>
0

> <PUBCHEM_BOND_DEF_STEREO_COUNT>
0

> <PUBCHEM_BOND_UDEF_STEREO_COUNT>
0

> <PUBCHEM_ISOTOPIC_ATOM_COUNT>
0

> <PUBCHEM_COMPONENT_COUNT>
1

> <PUBCHEM_CACTVS_TAUTO_COUNT>
10

> <PUBCHEM_COORDINATE_TYPE>
1
5
255

> <PUBCHEM_BONDANNOTATIONS>
14  15  8
2  13  8
2  14  8
7  13  8
7  15  8

$$$$

