47205561
  -OEChem-06241222593D

 39 40  0     0  0  0  0  0  0999 V2000
   -0.6742    1.5690    1.9534 O   0  0  0  0  0  0  0  0  0  0  0  0
   -1.5524    1.5730   -0.2358 N   0  0  0  0  0  0  0  0  0  0  0  0
    2.8178    2.4443   -0.4258 N   0  0  0  0  0  0  0  0  0  0  0  0
   -2.9398    1.5433    0.1360 C   0  0  0  0  0  0  0  0  0  0  0  0
   -3.6612    0.3136   -0.4054 C   0  0  0  0  0  0  0  0  0  0  0  0
   -3.0705   -0.9952    0.1238 C   0  0  0  0  0  0  0  0  0  0  0  0
    0.8658    1.6275    0.2483 C   0  0  0  0  0  0  0  0  0  0  0  0
   -0.5233    1.5833    0.7323 C   0  0  0  0  0  0  0  0  0  0  0  0
    1.7262    0.5451   -0.0603 C   0  0  0  0  0  0  0  0  0  0  0  0
   -1.2598    1.5919   -1.6734 C   0  0  0  0  0  0  0  0  0  0  0  0
    1.4954   -0.8691    0.0091 C   0  0  0  0  0  0  0  0  0  0  0  0
    1.5664    2.7900    0.0131 C   0  0  0  0  0  0  0  0  0  0  0  0
    2.9265    1.0790   -0.4745 C   0  0  0  0  0  0  0  0  0  0  0  0
   -3.8466   -2.2002   -0.3847 C   0  0  0  0  0  0  0  0  0  0  0  0
    1.6010   -1.6494   -1.1422 C   0  0  0  0  0  0  0  0  0  0  0  0
    1.1654   -1.4637    1.2268 C   0  0  0  0  0  0  0  0  0  0  0  0
    1.3764   -3.0246   -1.0758 C   0  0  0  0  0  0  0  0  0  0  0  0
    0.9407   -2.8387    1.2933 C   0  0  0  0  0  0  0  0  0  0  0  0
    1.0462   -3.6192    0.1420 C   0  0  0  0  0  0  0  0  0  0  0  0
   -3.4120    2.4531   -0.2527 H   0  0  0  0  0  0  0  0  0  0  0  0
   -3.0369    1.5765    1.2269 H   0  0  0  0  0  0  0  0  0  0  0  0
   -3.6468    0.3071   -1.5017 H   0  0  0  0  0  0  0  0  0  0  0  0
   -4.7164    0.3765   -0.1115 H   0  0  0  0  0  0  0  0  0  0  0  0
   -3.0860   -0.9940    1.2199 H   0  0  0  0  0  0  0  0  0  0  0  0
   -2.0247   -1.0977   -0.1855 H   0  0  0  0  0  0  0  0  0  0  0  0
   -1.2604    0.5621   -2.0421 H   0  0  0  0  0  0  0  0  0  0  0  0
   -0.2950    2.0451   -1.9028 H   0  0  0  0  0  0  0  0  0  0  0  0
   -2.0303    2.1690   -2.1941 H   0  0  0  0  0  0  0  0  0  0  0  0
    1.2896    3.8300    0.1172 H   0  0  0  0  0  0  0  0  0  0  0  0
    3.8504    0.6186   -0.7985 H   0  0  0  0  0  0  0  0  0  0  0  0
   -3.8234   -2.2483   -1.4781 H   0  0  0  0  0  0  0  0  0  0  0  0
   -3.4086   -3.1244    0.0052 H   0  0  0  0  0  0  0  0  0  0  0  0
   -4.8922   -2.1579   -0.0638 H   0  0  0  0  0  0  0  0  0  0  0  0
    3.5486    3.0964   -0.6753 H   0  0  0  0  0  0  0  0  0  0  0  0
    1.8515   -1.2049   -2.1027 H   0  0  0  0  0  0  0  0  0  0  0  0
    1.0828   -0.8735    2.1364 H   0  0  0  0  0  0  0  0  0  0  0  0
    1.4569   -3.6321   -1.9725 H   0  0  0  0  0  0  0  0  0  0  0  0
    0.6841   -3.3019    2.2415 H   0  0  0  0  0  0  0  0  0  0  0  0
    0.8708   -4.6897    0.1937 H   0  0  0  0  0  0  0  0  0  0  0  0
  1  8  2  0  0  0  0
  2  4  1  0  0  0  0
  2  8  1  0  0  0  0
  2 10  1  0  0  0  0
  3 12  1  0  0  0  0
  3 13  1  0  0  0  0
  3 34  1  0  0  0  0
  4  5  1  0  0  0  0
  4 20  1  0  0  0  0
  4 21  1  0  0  0  0
  5  6  1  0  0  0  0
  5 22  1  0  0  0  0
  5 23  1  0  0  0  0
  6 14  1  0  0  0  0
  6 24  1  0  0  0  0
  6 25  1  0  0  0  0
  7  8  1  0  0  0  0
  7  9  1  0  0  0  0
  7 12  2  0  0  0  0
  9 11  1  0  0  0  0
  9 13  2  0  0  0  0
 10 26  1  0  0  0  0
 10 27  1  0  0  0  0
 10 28  1  0  0  0  0
 11 15  2  0  0  0  0
 11 16  1  0  0  0  0
 12 29  1  0  0  0  0
 13 30  1  0  0  0  0
 14 31  1  0  0  0  0
 14 32  1  0  0  0  0
 14 33  1  0  0  0  0
 15 17  1  0  0  0  0
 15 35  1  0  0  0  0
 16 18  2  0  0  0  0
 16 36  1  0  0  0  0
 17 19  2  0  0  0  0
 17 37  1  0  0  0  0
 18 19  1  0  0  0  0
 18 38  1  0  0  0  0
 19 39  1  0  0  0  0
M  END
> <PUBCHEM_COMPOUND_CID>
47205561

> <PUBCHEM_CONFORMER_RMSD>
0.8

> <PUBCHEM_CONFORMER_DIVERSEORDER>
1
23
64
35
61
67
33
21
66
32
63
20
13
24
65
48
5
42
44
46
11
76
39
41
50
71
8
38
59
22
74
40
31
12
30
52
25
77
43
36
15
34
45
70
16
75
9
79
28
6
57
55
26
69
19
53
47
37
73
14
3
58
4
18
10
72
56
17
60
29
49
62
51
27
2
54
78
7
68

> <PUBCHEM_MMFF94_PARTIAL_CHARGES>
24
1 -0.57
10 0.3
11 0.05
12 -0.3
13 -0.3
15 -0.15
16 -0.15
17 -0.15
18 -0.15
19 -0.15
2 -0.66
29 0.15
3 0.03
30 0.15
34 0.27
35 0.15
36 0.15
37 0.15
38 0.15
39 0.15
4 0.3
7 -0.09
8 0.72
9 -0.05

> <PUBCHEM_EFFECTIVE_ROTOR_COUNT>
6

> <PUBCHEM_PHARMACOPHORE_FEATURES>
6
1 1 acceptor
1 14 hydrophobe
1 3 cation
1 3 donor
5 3 7 9 12 13 rings
6 11 15 16 17 18 19 rings

> <PUBCHEM_HEAVY_ATOM_COUNT>
19

> <PUBCHEM_ATOM_DEF_STEREO_COUNT>
0

> <PUBCHEM_ATOM_UDEF_STEREO_COUNT>
0

> <PUBCHEM_BOND_DEF_STEREO_COUNT>
0

> <PUBCHEM_BOND_UDEF_STEREO_COUNT>
0

> <PUBCHEM_ISOTOPIC_ATOM_COUNT>
0

> <PUBCHEM_COMPONENT_COUNT>
1

> <PUBCHEM_CACTVS_TAUTO_COUNT>
3

> <PUBCHEM_CONFORMER_ID>
02D04CB900000001

> <PUBCHEM_MMFF94_ENERGY>
39.9451

> <PUBCHEM_FEATURE_SELFOVERLAP>
30.446

> <PUBCHEM_SHAPE_FINGERPRINT>
10064457 181 17686880740882916707
104564 63 16323149716710132716
10616163 171 18337954494049562287
11578080 2 16696393795804486174
11640471 11 11670621578807265845
12400797 292 18337948003816070283
12553582 1 17689711282822848479
13004483 165 17121445216324657810
13402501 40 17694497053840094051
13931106 250 16758046796691143764
14178342 30 18335429001123319824
1420 336 17905889532762478475
14251745 187 17977387127383788683
14787075 74 17536035454623265273
17492 54 17911801267255481159
18981168 100 8571844911562340152
19591789 44 18338799992426223118
20600515 1 17545063930992503320
20645477 70 18411143562957030133
20905425 154 18336264548740977671
21421861 104 18410564120276204515
21634736 98 18265042720689079398
21731516 1 17548120586344891184
22907989 373 17477439207466983492
23419403 2 16600903057246078724
238 59 18050321135405361231
2871803 45 18266745675717244063
3052486 1 17189279105279699755
6438718 38 17104238482183524703
7364860 26 18337954596511585780
81228 2 17260206401559725304

> <PUBCHEM_SHAPE_MULTIPOLES>
375.18
5.05
4.4
1.29
5.4
2.18
0.13
0.56
-0.91
-2.09
-0.03
-0.09
0.11
-0.22

> <PUBCHEM_SHAPE_SELFOVERLAP>
788.237

> <PUBCHEM_SHAPE_VOLUME>
213.2

> <PUBCHEM_COORDINATE_TYPE>
2
5
10

$$$$

