11649
  -OEChem-06261205562D

 15 13  0     0  0  0  0  0  0999 V2000
    1.1530    0.0000    0.0000 Cl  0  5  0  0  0  0  0  0  0  0  0  0
    1.4030    3.5369    0.0000 N   0  3  0  0  0  0  0  0  0  0  0  0
    2.2690    4.0369    0.0000 C   0  0  0  0  0  0  0  0  0  0  0  0
    0.5369    3.0369    0.0000 C   0  0  0  0  0  0  0  0  0  0  0  0
    0.9030    4.4030    0.0000 C   0  0  0  0  0  0  0  0  0  0  0  0
    1.7130    3.0000    0.0000 H   0  0  0  0  0  0  0  0  0  0  0  0
    2.5790    3.5000    0.0000 H   0  0  0  0  0  0  0  0  0  0  0  0
    2.8059    4.3469    0.0000 H   0  0  0  0  0  0  0  0  0  0  0  0
    1.9590    4.5739    0.0000 H   0  0  0  0  0  0  0  0  0  0  0  0
    0.2269    3.5739    0.0000 H   0  0  0  0  0  0  0  0  0  0  0  0
    0.0000    2.7269    0.0000 H   0  0  0  0  0  0  0  0  0  0  0  0
    0.8469    2.5000    0.0000 H   0  0  0  0  0  0  0  0  0  0  0  0
    1.4399    4.7130    0.0000 H   0  0  0  0  0  0  0  0  0  0  0  0
    0.5930    4.9399    0.0000 H   0  0  0  0  0  0  0  0  0  0  0  0
    0.3660    4.0930    0.0000 H   0  0  0  0  0  0  0  0  0  0  0  0
  2  3  1  0  0  0  0
  2  4  1  0  0  0  0
  2  5  1  0  0  0  0
  2  6  1  0  0  0  0
  3  7  1  0  0  0  0
  3  8  1  0  0  0  0
  3  9  1  0  0  0  0
  4 10  1  0  0  0  0
  4 11  1  0  0  0  0
  4 12  1  0  0  0  0
  5 13  1  0  0  0  0
  5 14  1  0  0  0  0
  5 15  1  0  0  0  0
M  CHG  2   1  -1   2   1
M  END
> <PUBCHEM_COMPOUND_CID>
11649

> <PUBCHEM_COMPOUND_CANONICALIZED>
1

> <PUBCHEM_CACTVS_COMPLEXITY>
8

> <PUBCHEM_CACTVS_HBOND_ACCEPTOR>
1

> <PUBCHEM_CACTVS_HBOND_DONOR>
1

> <PUBCHEM_CACTVS_ROTATABLE_BOND>
0

> <PUBCHEM_CACTVS_SUBSKEYS>
AAADccBCAAAEAAAAAAAAAAAAAAAAAAAAAAAAAAAAAAAAAAAAAAAAFAAQAAAAAAAAAAQCAAPAAAAAAAAAAAAAAAAAAAAAAIAIAAAAAAAAAAAAAAAAAAAAAAAAAAAAAAAAAAAAAAAAAAAAAAAAAAAAAAAAAA==

> <PUBCHEM_IUPAC_OPENEYE_NAME>
trimethylammonium chloride

> <PUBCHEM_IUPAC_CAS_NAME>
trimethylammonium chloride

> <PUBCHEM_IUPAC_NAME>
trimethylazanium chloride

> <PUBCHEM_IUPAC_SYSTEMATIC_NAME>
trimethylazanium chloride

> <PUBCHEM_IUPAC_TRADITIONAL_NAME>
trimethylammonium chloride

> <PUBCHEM_IUPAC_INCHI>
InChI=1S/C3H9N.ClH/c1-4(2)3;/h1-3H3;1H

> <PUBCHEM_IUPAC_INCHIKEY>
SZYJELPVAFJOGJ-UHFFFAOYSA-N

> <PUBCHEM_EXACT_MASS>
95.050177

> <PUBCHEM_MOLECULAR_FORMULA>
C3H10ClN

> <PUBCHEM_MOLECULAR_WEIGHT>
95.5712

> <PUBCHEM_OPENEYE_CAN_SMILES>
C[NH+](C)C.[Cl-]

> <PUBCHEM_OPENEYE_ISO_SMILES>
C[NH+](C)C.[Cl-]

> <PUBCHEM_CACTVS_TPSA>
4.4

> <PUBCHEM_MONOISOTOPIC_WEIGHT>
95.050177

> <PUBCHEM_TOTAL_CHARGE>
0

> <PUBCHEM_HEAVY_ATOM_COUNT>
5

> <PUBCHEM_ATOM_DEF_STEREO_COUNT>
0

> <PUBCHEM_ATOM_UDEF_STEREO_COUNT>
0

> <PUBCHEM_BOND_DEF_STEREO_COUNT>
0

> <PUBCHEM_BOND_UDEF_STEREO_COUNT>
0

> <PUBCHEM_ISOTOPIC_ATOM_COUNT>
0

> <PUBCHEM_COMPONENT_COUNT>
2

> <PUBCHEM_CACTVS_TAUTO_COUNT>
1

> <PUBCHEM_COORDINATE_TYPE>
1
5
255

$$$$

