9909
  -OEChem-06261204102D

 29 31  0     0  0  0  0  0  0999 V2000
    6.0683   -1.6377    0.0000 O   0  0  0  0  0  0  0  0  0  0  0  0
    6.0683    1.3623    0.0000 O   0  0  0  0  0  0  0  0  0  0  0  0
    9.5984   -1.6618    0.0000 O   0  0  0  0  0  0  0  0  0  0  0  0
    7.8167    1.3969    0.0000 O   0  0  0  0  0  0  0  0  0  0  0  0
    2.5381    0.3865    0.0000 O   0  0  0  0  0  0  0  0  0  0  0  0
    6.9343   -0.1377    0.0000 C   0  0  0  0  0  0  0  0  0  0  0  0
    5.2022   -0.1377    0.0000 C   0  0  0  0  0  0  0  0  0  0  0  0
    6.9343   -1.1377    0.0000 C   0  0  0  0  0  0  0  0  0  0  0  0
    6.0683    0.3623    0.0000 C   0  0  0  0  0  0  0  0  0  0  0  0
    5.2022   -1.1377    0.0000 C   0  0  0  0  0  0  0  0  0  0  0  0
    7.8282    0.3970    0.0000 C   0  0  0  0  0  0  0  0  0  0  0  0
    7.8282   -1.6723    0.0000 C   0  0  0  0  0  0  0  0  0  0  0  0
    4.3083    0.3970    0.0000 C   0  0  0  0  0  0  0  0  0  0  0  0
    4.3083   -1.6723    0.0000 C   0  0  0  0  0  0  0  0  0  0  0  0
    8.7343   -1.1585    0.0000 C   0  0  0  0  0  0  0  0  0  0  0  0
    8.7343   -0.1169    0.0000 C   0  0  0  0  0  0  0  0  0  0  0  0
    3.4022   -0.1169    0.0000 C   0  0  0  0  0  0  0  0  0  0  0  0
    3.4022   -1.1585    0.0000 C   0  0  0  0  0  0  0  0  0  0  0  0
   10.4663   -1.1652    0.0000 C   0  0  0  0  0  0  0  0  0  0  0  0
    7.8211   -2.2923    0.0000 H   0  0  0  0  0  0  0  0  0  0  0  0
    4.3155    1.0170    0.0000 H   0  0  0  0  0  0  0  0  0  0  0  0
    4.3155   -2.2923    0.0000 H   0  0  0  0  0  0  0  0  0  0  0  0
    9.2700    0.1952    0.0000 H   0  0  0  0  0  0  0  0  0  0  0  0
    2.8665   -1.4706    0.0000 H   0  0  0  0  0  0  0  0  0  0  0  0
    5.5313    1.6723    0.0000 H   0  0  0  0  0  0  0  0  0  0  0  0
    2.0000    0.0786    0.0000 H   0  0  0  0  0  0  0  0  0  0  0  0
   10.7743   -1.7033    0.0000 H   0  0  0  0  0  0  0  0  0  0  0  0
   11.0045   -0.8572    0.0000 H   0  0  0  0  0  0  0  0  0  0  0  0
   10.1584   -0.6270    0.0000 H   0  0  0  0  0  0  0  0  0  0  0  0
  1  8  1  0  0  0  0
  1 10  1  0  0  0  0
  2  9  1  0  0  0  0
  2 25  1  0  0  0  0
  3 15  1  0  0  0  0
  3 19  1  0  0  0  0
  4 11  2  0  0  0  0
  5 17  1  0  0  0  0
  5 26  1  0  0  0  0
  6  8  1  0  0  0  0
  6  9  2  0  0  0  0
  6 11  1  0  0  0  0
  7  9  1  0  0  0  0
  7 10  2  0  0  0  0
  7 13  1  0  0  0  0
  8 12  2  0  0  0  0
 10 14  1  0  0  0  0
 11 16  1  0  0  0  0
 12 15  1  0  0  0  0
 12 20  1  0  0  0  0
 13 17  2  0  0  0  0
 13 21  1  0  0  0  0
 14 18  2  0  0  0  0
 14 22  1  0  0  0  0
 15 16  2  0  0  0  0
 16 23  1  0  0  0  0
 17 18  1  0  0  0  0
 18 24  1  0  0  0  0
 19 27  1  0  0  0  0
 19 28  1  0  0  0  0
 19 29  1  0  0  0  0
M  END
> <PUBCHEM_COMPOUND_CID>
9909

> <PUBCHEM_COMPOUND_CANONICALIZED>
1

> <PUBCHEM_CACTVS_COMPLEXITY>
514

> <PUBCHEM_CACTVS_HBOND_ACCEPTOR>
5

> <PUBCHEM_CACTVS_HBOND_DONOR>
2

> <PUBCHEM_CACTVS_ROTATABLE_BOND>
1

> <PUBCHEM_CACTVS_SUBSKEYS>
AAADccBwOAAAAAAAAAAAAAAAAAAAAAAAAAAwQIAAAAAAAACBAAAAGgAACAAADASAmAIyBoAABgCIAqBSAAACCAAgIAAIiAEGCMgMJyaGMRqCeCCl4BEIuQfAwDAOAQABAAAIAAACAAIAABAAAAAAAAAAAA==

> <PUBCHEM_IUPAC_OPENEYE_NAME>
7,9-dihydroxy-3-methoxy-xanthen-1-one

> <PUBCHEM_IUPAC_CAS_NAME>
7,9-dihydroxy-3-methoxy-1-xanthenone

> <PUBCHEM_IUPAC_NAME>
7,9-dihydroxy-3-methoxyxanthen-1-one

> <PUBCHEM_IUPAC_SYSTEMATIC_NAME>
3-methoxy-7,9-bis(oxidanyl)xanthen-1-one

> <PUBCHEM_IUPAC_TRADITIONAL_NAME>
7,9-dihydroxy-3-methoxy-xanthen-1-one

> <PUBCHEM_IUPAC_INCHI>
InChI=1S/C14H10O5/c1-18-8-5-10(16)13-12(6-8)19-11-3-2-7(15)4-9(11)14(13)17/h2-6,15,17H,1H3

> <PUBCHEM_IUPAC_INCHIKEY>
RCZYTHMRQHJPHW-UHFFFAOYSA-N

> <PUBCHEM_XLOGP3_AA>
1.8

> <PUBCHEM_EXACT_MASS>
258.052823

> <PUBCHEM_MOLECULAR_FORMULA>
C14H10O5

> <PUBCHEM_MOLECULAR_WEIGHT>
258.2262

> <PUBCHEM_OPENEYE_CAN_SMILES>
COC1=CC(=O)C2=C(C3=C(C=CC(=C3)O)OC2=C1)O

> <PUBCHEM_OPENEYE_ISO_SMILES>
COC1=CC(=O)C2=C(C3=C(C=CC(=C3)O)OC2=C1)O

> <PUBCHEM_CACTVS_TPSA>
76

> <PUBCHEM_MONOISOTOPIC_WEIGHT>
258.052823

> <PUBCHEM_TOTAL_CHARGE>
0

> <PUBCHEM_HEAVY_ATOM_COUNT>
19

> <PUBCHEM_ATOM_DEF_STEREO_COUNT>
0

> <PUBCHEM_ATOM_UDEF_STEREO_COUNT>
0

> <PUBCHEM_BOND_DEF_STEREO_COUNT>
0

> <PUBCHEM_BOND_UDEF_STEREO_COUNT>
0

> <PUBCHEM_ISOTOPIC_ATOM_COUNT>
0

> <PUBCHEM_COMPONENT_COUNT>
1

> <PUBCHEM_CACTVS_TAUTO_COUNT>
12

> <PUBCHEM_COORDINATE_TYPE>
1
5
255

> <PUBCHEM_BONDANNOTATIONS>
1  10  8
1  8  8
10  14  8
11  16  8
12  15  8
13  17  8
14  18  8
15  16  8
17  18  8
6  11  8
6  9  8
7  10  8
7  13  8
7  9  8
8  12  8

$$$$

