10479
  -OEChem-06261204352D

  9  6  0     0  0  0  0  0  0999 V2000
    3.4030    0.5000    0.0000 Cd  0  2  0  0  0  0  0  0  0  0  0  0
    2.5369    0.0000    0.0000 C   0  5  0  0  0  0  0  0  0  0  0  0
    4.2690    0.0000    0.0000 C   0  5  0  0  0  0  0  0  0  0  0  0
    2.0000   -0.3100    0.0000 H   0  0  0  0  0  0  0  0  0  0  0  0
    2.2269    0.5369    0.0000 H   0  0  0  0  0  0  0  0  0  0  0  0
    2.8469   -0.5369    0.0000 H   0  0  0  0  0  0  0  0  0  0  0  0
    4.8059   -0.3100    0.0000 H   0  0  0  0  0  0  0  0  0  0  0  0
    4.5790    0.5369    0.0000 H   0  0  0  0  0  0  0  0  0  0  0  0
    3.9590   -0.5369    0.0000 H   0  0  0  0  0  0  0  0  0  0  0  0
  2  4  1  0  0  0  0
  2  5  1  0  0  0  0
  2  6  1  0  0  0  0
  3  7  1  0  0  0  0
  3  8  1  0  0  0  0
  3  9  1  0  0  0  0
M  CHG  3   1   2   2  -1   3  -1
M  END
> <PUBCHEM_COMPOUND_CID>
10479

> <PUBCHEM_COMPOUND_CANONICALIZED>
1

> <PUBCHEM_CACTVS_COMPLEXITY>
2.8

> <PUBCHEM_CACTVS_HBOND_ACCEPTOR>
2

> <PUBCHEM_CACTVS_HBOND_DONOR>
0

> <PUBCHEM_CACTVS_ROTATABLE_BOND>
0

> <PUBCHEM_CACTVS_SUBSKEYS>
AAADcYBAAAAAAAAAAAIAAAAAAAAAAAAAAAAAAAAAAAAAAAAAAAAAEAAAAAAAAAAAAAACAAAAAAAAAAAAAAAAAAAAAAAAAAAAAAAAAAAAAAAAAAAAAAAAAAAAAAAAAAAAAAAAAAAAAAAAAAAAAAAAAAAAAA==

> <PUBCHEM_IUPAC_OPENEYE_NAME>
cadmium(2+); carbanide

> <PUBCHEM_IUPAC_CAS_NAME>
cadmium(2+); carbanide

> <PUBCHEM_IUPAC_NAME>
cadmium(2+); carbanide

> <PUBCHEM_IUPAC_SYSTEMATIC_NAME>
cadmium(2+); carbanide

> <PUBCHEM_IUPAC_TRADITIONAL_NAME>
cadmium(2+); carbanide

> <PUBCHEM_IUPAC_INCHI>
InChI=1S/2CH3.Cd/h2*1H3;/q2*-1;+2

> <PUBCHEM_IUPAC_INCHIKEY>
VQNPSCRXHSIJTH-UHFFFAOYSA-N

> <PUBCHEM_EXACT_MASS>
143.950309

> <PUBCHEM_MOLECULAR_FORMULA>
C2H6Cd

> <PUBCHEM_MOLECULAR_WEIGHT>
142.48004

> <PUBCHEM_OPENEYE_CAN_SMILES>
[CH3-].[CH3-].[Cd+2]

> <PUBCHEM_OPENEYE_ISO_SMILES>
[CH3-].[CH3-].[Cd+2]

> <PUBCHEM_CACTVS_TPSA>
0

> <PUBCHEM_MONOISOTOPIC_WEIGHT>
143.950309

> <PUBCHEM_TOTAL_CHARGE>
0

> <PUBCHEM_HEAVY_ATOM_COUNT>
3

> <PUBCHEM_ATOM_DEF_STEREO_COUNT>
0

> <PUBCHEM_ATOM_UDEF_STEREO_COUNT>
0

> <PUBCHEM_BOND_DEF_STEREO_COUNT>
0

> <PUBCHEM_BOND_UDEF_STEREO_COUNT>
0

> <PUBCHEM_ISOTOPIC_ATOM_COUNT>
0

> <PUBCHEM_COMPONENT_COUNT>
3

> <PUBCHEM_CACTVS_TAUTO_COUNT>
1

> <PUBCHEM_NONSTANDARDBOND>
1  2  6
1  3  6

> <PUBCHEM_COORDINATE_TYPE>
1
5
255

$$$$

