17396297
  -OEChem-06241222552D

 37 39  0     0  0  0  0  0  0999 V2000
    4.0032    0.2342    0.0000 S   0  0  0  0  0  0  0  0  0  0  0  0
    6.7720    2.7658    0.0000 O   0  0  0  0  0  0  0  0  0  0  0  0
    2.5352   -2.0040    0.0000 O   0  0  0  0  0  0  0  0  0  0  0  0
    4.1897    2.0613    0.0000 O   0  0  0  0  0  0  0  0  0  0  0  0
    5.3122   -0.7168    0.0000 N   0  0  0  0  0  0  0  0  0  0  0  0
    5.5910    1.0432    0.0000 N   0  0  0  0  0  0  0  0  0  0  0  0
    4.5032   -1.3046    0.0000 C   0  0  0  0  0  0  0  0  0  0  0  0
    4.5032   -2.3046    0.0000 C   0  0  0  0  0  0  0  0  0  0  0  0
    3.6942   -0.7168    0.0000 C   0  0  0  0  0  0  0  0  0  0  0  0
    5.0032    0.2342    0.0000 C   0  0  0  0  0  0  0  0  0  0  0  0
    3.6372   -2.8046    0.0000 C   0  0  0  0  0  0  0  0  0  0  0  0
    5.3692   -2.8046    0.0000 C   0  0  0  0  0  0  0  0  0  0  0  0
    5.7720    2.7658    0.0000 C   0  0  0  0  0  0  0  0  0  0  0  0
    2.7431   -1.0259    0.0000 C   0  0  0  0  0  0  0  0  0  0  0  0
    5.1843    1.9568    0.0000 C   0  0  0  0  0  0  0  0  0  0  0  0
    7.0811    3.7168    0.0000 C   0  0  0  0  0  0  0  0  0  0  0  0
    5.4630    3.7168    0.0000 C   0  0  0  0  0  0  0  0  0  0  0  0
    3.6372   -3.8046    0.0000 C   0  0  0  0  0  0  0  0  0  0  0  0
    5.3692   -3.8046    0.0000 C   0  0  0  0  0  0  0  0  0  0  0  0
    6.2720    4.3046    0.0000 C   0  0  0  0  0  0  0  0  0  0  0  0
    4.5032   -4.3046    0.0000 C   0  0  0  0  0  0  0  0  0  0  0  0
    2.0000   -0.3567    0.0000 C   0  0  0  0  0  0  0  0  0  0  0  0
    8.0321    4.0259    0.0000 C   0  0  0  0  0  0  0  0  0  0  0  0
    3.1003   -2.4946    0.0000 H   0  0  0  0  0  0  0  0  0  0  0  0
    5.9062   -2.4946    0.0000 H   0  0  0  0  0  0  0  0  0  0  0  0
    6.2076    0.9784    0.0000 H   0  0  0  0  0  0  0  0  0  0  0  0
    4.8734    3.9084    0.0000 H   0  0  0  0  0  0  0  0  0  0  0  0
    6.2720    4.9246    0.0000 H   0  0  0  0  0  0  0  0  0  0  0  0
    3.1003   -4.1146    0.0000 H   0  0  0  0  0  0  0  0  0  0  0  0
    5.9062   -4.1146    0.0000 H   0  0  0  0  0  0  0  0  0  0  0  0
    4.5032   -4.9246    0.0000 H   0  0  0  0  0  0  0  0  0  0  0  0
    2.4149    0.1040    0.0000 H   0  0  0  0  0  0  0  0  0  0  0  0
    1.5392    0.0581    0.0000 H   0  0  0  0  0  0  0  0  0  0  0  0
    1.5851   -0.8175    0.0000 H   0  0  0  0  0  0  0  0  0  0  0  0
    8.2237    3.4362    0.0000 H   0  0  0  0  0  0  0  0  0  0  0  0
    8.6218    4.2175    0.0000 H   0  0  0  0  0  0  0  0  0  0  0  0
    7.8405    4.6155    0.0000 H   0  0  0  0  0  0  0  0  0  0  0  0
  1  9  1  0  0  0  0
  1 10  1  0  0  0  0
  2 13  1  0  0  0  0
  2 16  1  0  0  0  0
  3 14  2  0  0  0  0
  4 15  2  0  0  0  0
  5  7  1  0  0  0  0
  5 10  2  0  0  0  0
  6 10  1  0  0  0  0
  6 15  1  0  0  0  0
  6 26  1  0  0  0  0
  7  8  1  0  0  0  0
  7  9  2  0  0  0  0
  8 11  2  0  0  0  0
  8 12  1  0  0  0  0
  9 14  1  0  0  0  0
 11 18  1  0  0  0  0
 11 24  1  0  0  0  0
 12 19  2  0  0  0  0
 12 25  1  0  0  0  0
 13 15  1  0  0  0  0
 13 17  2  0  0  0  0
 14 22  1  0  0  0  0
 16 20  2  0  0  0  0
 16 23  1  0  0  0  0
 17 20  1  0  0  0  0
 17 27  1  0  0  0  0
 18 21  2  0  0  0  0
 18 29  1  0  0  0  0
 19 21  1  0  0  0  0
 19 30  1  0  0  0  0
 20 28  1  0  0  0  0
 21 31  1  0  0  0  0
 22 32  1  0  0  0  0
 22 33  1  0  0  0  0
 22 34  1  0  0  0  0
 23 35  1  0  0  0  0
 23 36  1  0  0  0  0
 23 37  1  0  0  0  0
M  END
> <PUBCHEM_COMPOUND_CID>
17396297

> <PUBCHEM_COMPOUND_CANONICALIZED>
1

> <PUBCHEM_CACTVS_COMPLEXITY>
453

> <PUBCHEM_CACTVS_HBOND_ACCEPTOR>
5

> <PUBCHEM_CACTVS_HBOND_DONOR>
1

> <PUBCHEM_CACTVS_ROTATABLE_BOND>
4

> <PUBCHEM_CACTVS_SUBSKEYS>
AAADccB7MABAAAAAAAAAAAAAAAAAAWJAAAAwAAAAAAAAAAAB8AAAHgQQAAAADAyB3gAzlZLIFEisA6VydAKC+KllKDkJmDXmTNiOJrrkvT+HOajswRNY6eeYn4LuAAAAAAAAAAAAAAAAAAAAAAAAAAAAAA==

> <PUBCHEM_IUPAC_OPENEYE_NAME>
N-(5-acetyl-4-phenyl-thiazol-2-yl)-5-methyl-furan-2-carboxamide

> <PUBCHEM_IUPAC_CAS_NAME>
N-(5-acetyl-4-phenyl-2-thiazolyl)-5-methyl-2-furancarboxamide

> <PUBCHEM_IUPAC_NAME>
N-(5-acetyl-4-phenyl-1,3-thiazol-2-yl)-5-methylfuran-2-carboxamide

> <PUBCHEM_IUPAC_SYSTEMATIC_NAME>
N-(5-ethanoyl-4-phenyl-1,3-thiazol-2-yl)-5-methyl-furan-2-carboxamide

> <PUBCHEM_IUPAC_TRADITIONAL_NAME>
N-(5-acetyl-4-phenyl-thiazol-2-yl)-5-methyl-2-furamide

> <PUBCHEM_IUPAC_INCHI>
InChI=1S/C17H14N2O3S/c1-10-8-9-13(22-10)16(21)19-17-18-14(15(23-17)11(2)20)12-6-4-3-5-7-12/h3-9H,1-2H3,(H,18,19,21)

> <PUBCHEM_IUPAC_INCHIKEY>
XBCVMXOOONNWCQ-UHFFFAOYSA-N

> <PUBCHEM_XLOGP3_AA>
3.6

> <PUBCHEM_EXACT_MASS>
326.072513

> <PUBCHEM_MOLECULAR_FORMULA>
C17H14N2O3S

> <PUBCHEM_MOLECULAR_WEIGHT>
326.36966

> <PUBCHEM_OPENEYE_CAN_SMILES>
CC1=CC=C(O1)C(=O)NC2=NC(=C(S2)C(=O)C)C3=CC=CC=C3

> <PUBCHEM_OPENEYE_ISO_SMILES>
CC1=CC=C(O1)C(=O)NC2=NC(=C(S2)C(=O)C)C3=CC=CC=C3

> <PUBCHEM_CACTVS_TPSA>
100

> <PUBCHEM_MONOISOTOPIC_WEIGHT>
326.072513

> <PUBCHEM_TOTAL_CHARGE>
0

> <PUBCHEM_HEAVY_ATOM_COUNT>
23

> <PUBCHEM_ATOM_DEF_STEREO_COUNT>
0

> <PUBCHEM_ATOM_UDEF_STEREO_COUNT>
0

> <PUBCHEM_BOND_DEF_STEREO_COUNT>
0

> <PUBCHEM_BOND_UDEF_STEREO_COUNT>
0

> <PUBCHEM_ISOTOPIC_ATOM_COUNT>
0

> <PUBCHEM_COMPONENT_COUNT>
1

> <PUBCHEM_CACTVS_TAUTO_COUNT>
34

> <PUBCHEM_COORDINATE_TYPE>
1
5
255

> <PUBCHEM_BONDANNOTATIONS>
1  10  8
1  9  8
11  18  8
12  19  8
13  17  8
16  20  8
17  20  8
18  21  8
19  21  8
2  13  8
2  16  8
5  10  8
5  7  8
7  9  8
8  11  8
8  12  8

$$$$

