47205088
  -OEChem-06241222582D

 36 38  0     0  0  0  0  0  0999 V2000
    5.1408    0.2854    0.0000 S   0  0  0  0  0  0  0  0  0  0  0  0
    7.2161    1.9665    0.0000 O   0  0  0  0  0  0  0  0  0  0  0  0
    7.2247    0.2345    0.0000 N   0  0  0  0  0  0  0  0  0  0  0  0
    9.7241   -0.7236    0.0000 N   0  0  0  0  0  0  0  0  0  0  0  0
    9.9368   -1.7007    0.0000 N   0  0  0  0  0  0  0  0  0  0  0  0
    2.0000    1.0745    0.0000 C   0  0  0  0  0  0  0  0  0  0  0  0
    2.4294    1.9776    0.0000 C   0  0  0  0  0  0  0  0  0  0  0  0
    2.4384    0.1757    0.0000 C   0  0  0  0  0  0  0  0  0  0  0  0
    3.4032    2.2050    0.0000 C   0  0  0  0  0  0  0  0  0  0  0  0
    3.4144   -0.0420    0.0000 C   0  0  0  0  0  0  0  0  0  0  0  0
    4.1881    1.5854    0.0000 C   0  0  0  0  0  0  0  0  0  0  0  0
    4.1931    0.5854    0.0000 C   0  0  0  0  0  0  0  0  0  0  0  0
    5.1328    1.8949    0.0000 C   0  0  0  0  0  0  0  0  0  0  0  0
    5.7204    1.0930    0.0000 C   0  0  0  0  0  0  0  0  0  0  0  0
    6.7204    1.0980    0.0000 C   0  0  0  0  0  0  0  0  0  0  0  0
    8.2247    0.2395    0.0000 C   0  0  0  0  0  0  0  0  0  0  0  0
    8.7290   -0.6240    0.0000 C   0  0  0  0  0  0  0  0  0  0  0  0
    8.3268   -1.5396    0.0000 C   0  0  0  0  0  0  0  0  0  0  0  0
    9.0733   -2.2050    0.0000 C   0  0  0  0  0  0  0  0  0  0  0  0
    1.5133    1.4586    0.0000 H   0  0  0  0  0  0  0  0  0  0  0  0
    1.5172    0.6855    0.0000 H   0  0  0  0  0  0  0  0  0  0  0  0
    2.4263    2.5976    0.0000 H   0  0  0  0  0  0  0  0  0  0  0  0
    1.8242    2.1126    0.0000 H   0  0  0  0  0  0  0  0  0  0  0  0
    1.8346    0.0347    0.0000 H   0  0  0  0  0  0  0  0  0  0  0  0
    2.4415   -0.4443    0.0000 H   0  0  0  0  0  0  0  0  0  0  0  0
    3.8860    2.5940    0.0000 H   0  0  0  0  0  0  0  0  0  0  0  0
    3.1314    2.7622    0.0000 H   0  0  0  0  0  0  0  0  0  0  0  0
    3.1482   -0.6019    0.0000 H   0  0  0  0  0  0  0  0  0  0  0  0
    3.9010   -0.4261    0.0000 H   0  0  0  0  0  0  0  0  0  0  0  0
    5.3225    2.4851    0.0000 H   0  0  0  0  0  0  0  0  0  0  0  0
    6.9174   -0.3040    0.0000 H   0  0  0  0  0  0  0  0  0  0  0  0
    8.8063    0.4545    0.0000 H   0  0  0  0  0  0  0  0  0  0  0  0
    8.1140    0.8495    0.0000 H   0  0  0  0  0  0  0  0  0  0  0  0
    7.7210   -1.6715    0.0000 H   0  0  0  0  0  0  0  0  0  0  0  0
   10.1366   -0.2608    0.0000 H   0  0  0  0  0  0  0  0  0  0  0  0
    9.0116   -2.8219    0.0000 H   0  0  0  0  0  0  0  0  0  0  0  0
  1 12  1  0  0  0  0
  1 14  1  0  0  0  0
  2 15  2  0  0  0  0
  3 15  1  0  0  0  0
  3 16  1  0  0  0  0
  3 31  1  0  0  0  0
  4  5  1  0  0  0  0
  4 17  1  0  0  0  0
  4 35  1  0  0  0  0
  5 19  2  0  0  0  0
  6  7  1  0  0  0  0
  6  8  1  0  0  0  0
  6 20  1  0  0  0  0
  6 21  1  0  0  0  0
  7  9  1  0  0  0  0
  7 22  1  0  0  0  0
  7 23  1  0  0  0  0
  8 10  1  0  0  0  0
  8 24  1  0  0  0  0
  8 25  1  0  0  0  0
  9 11  1  0  0  0  0
  9 26  1  0  0  0  0
  9 27  1  0  0  0  0
 10 12  1  0  0  0  0
 10 28  1  0  0  0  0
 10 29  1  0  0  0  0
 11 12  2  0  0  0  0
 11 13  1  0  0  0  0
 13 14  2  0  0  0  0
 13 30  1  0  0  0  0
 14 15  1  0  0  0  0
 16 17  1  0  0  0  0
 16 32  1  0  0  0  0
 16 33  1  0  0  0  0
 17 18  2  0  0  0  0
 18 19  1  0  0  0  0
 18 34  1  0  0  0  0
 19 36  1  0  0  0  0
M  END
> <PUBCHEM_COMPOUND_CID>
47205088

> <PUBCHEM_COMPOUND_CANONICALIZED>
1

> <PUBCHEM_CACTVS_COMPLEXITY>
326

> <PUBCHEM_CACTVS_HBOND_ACCEPTOR>
3

> <PUBCHEM_CACTVS_HBOND_DONOR>
2

> <PUBCHEM_CACTVS_ROTATABLE_BOND>
3

> <PUBCHEM_CACTVS_SUBSKEYS>
AAADceBzIABAAAAAAAAAAAAAAAAAAWJAAAAAAAAABgAAAACR4AAAHgQYAAAADAjB3gQ8gZLjAAiuAzV3UACTBIAkihBYubk4ZNgIYLKg1dGUhQhgngCoyYcYiMCOAAAAAAAAAAAAAAAAAAAAAAAAAAAAAA==

> <PUBCHEM_IUPAC_OPENEYE_NAME>
N-(1H-pyrazol-5-ylmethyl)-5,6,7,8-tetrahydro-4H-cyclohepta[b]thiophene-2-carboxamide

> <PUBCHEM_IUPAC_CAS_NAME>
N-(1H-pyrazol-5-ylmethyl)-5,6,7,8-tetrahydro-4H-cyclohepta[b]thiophene-2-carboxamide

> <PUBCHEM_IUPAC_NAME>
N-(1H-pyrazol-5-ylmethyl)-5,6,7,8-tetrahydro-4H-cyclohepta[b]thiophene-2-carboxamide

> <PUBCHEM_IUPAC_SYSTEMATIC_NAME>
N-(1H-pyrazol-5-ylmethyl)-5,6,7,8-tetrahydro-4H-cyclohepta[b]thiophene-2-carboxamide

> <PUBCHEM_IUPAC_TRADITIONAL_NAME>
N-(1H-pyrazol-5-ylmethyl)-5,6,7,8-tetrahydro-4H-cyclohepta[b]thiophene-2-carboxamide

> <PUBCHEM_IUPAC_INCHI>
InChI=1S/C14H17N3OS/c18-14(15-9-11-6-7-16-17-11)13-8-10-4-2-1-3-5-12(10)19-13/h6-8H,1-5,9H2,(H,15,18)(H,16,17)

> <PUBCHEM_IUPAC_INCHIKEY>
BVFSKALRLWMFJT-UHFFFAOYSA-N

> <PUBCHEM_XLOGP3_AA>
2.8

> <PUBCHEM_EXACT_MASS>
275.109233

> <PUBCHEM_MOLECULAR_FORMULA>
C14H17N3OS

> <PUBCHEM_MOLECULAR_WEIGHT>
275.36928

> <PUBCHEM_OPENEYE_CAN_SMILES>
C1CCC2=C(CC1)SC(=C2)C(=O)NCC3=CC=NN3

> <PUBCHEM_OPENEYE_ISO_SMILES>
C1CCC2=C(CC1)SC(=C2)C(=O)NCC3=CC=NN3

> <PUBCHEM_CACTVS_TPSA>
86

> <PUBCHEM_MONOISOTOPIC_WEIGHT>
275.109233

> <PUBCHEM_TOTAL_CHARGE>
0

> <PUBCHEM_HEAVY_ATOM_COUNT>
19

> <PUBCHEM_ATOM_DEF_STEREO_COUNT>
0

> <PUBCHEM_ATOM_UDEF_STEREO_COUNT>
0

> <PUBCHEM_BOND_DEF_STEREO_COUNT>
0

> <PUBCHEM_BOND_UDEF_STEREO_COUNT>
0

> <PUBCHEM_ISOTOPIC_ATOM_COUNT>
0

> <PUBCHEM_COMPONENT_COUNT>
1

> <PUBCHEM_CACTVS_TAUTO_COUNT>
10

> <PUBCHEM_COORDINATE_TYPE>
1
5
255

> <PUBCHEM_BONDANNOTATIONS>
1  12  8
1  14  8
11  12  8
11  13  8
13  14  8
17  18  8
18  19  8
4  17  8
4  5  8
5  19  8

$$$$

