10731
  -OEChem-06261204533D

 25 27  0     0  0  0  0  0  0999 V2000
    0.0000    2.5804   -0.0002 O   0  0  0  0  0  0  0  0  0  0  0  0
   -1.2251    0.5217    0.0000 C   0  0  0  0  0  0  0  0  0  0  0  0
    1.2251    0.5218    0.0000 C   0  0  0  0  0  0  0  0  0  0  0  0
   -1.2251   -0.8903    0.0000 C   0  0  0  0  0  0  0  0  0  0  0  0
    1.2250   -0.8904   -0.0001 C   0  0  0  0  0  0  0  0  0  0  0  0
    0.0000    1.2094    0.0001 C   0  0  0  0  0  0  0  0  0  0  0  0
    0.0000   -1.5780   -0.0001 C   0  0  0  0  0  0  0  0  0  0  0  0
   -2.4505    1.2086    0.0001 C   0  0  0  0  0  0  0  0  0  0  0  0
    2.4505    1.2087    0.0001 C   0  0  0  0  0  0  0  0  0  0  0  0
   -2.4504   -1.5773    0.0001 C   0  0  0  0  0  0  0  0  0  0  0  0
    2.4505   -1.5772    0.0000 C   0  0  0  0  0  0  0  0  0  0  0  0
   -3.6587    0.5112    0.0000 C   0  0  0  0  0  0  0  0  0  0  0  0
    3.6587    0.5112    0.0001 C   0  0  0  0  0  0  0  0  0  0  0  0
   -3.6587   -0.8799    0.0000 C   0  0  0  0  0  0  0  0  0  0  0  0
    3.6587   -0.8799    0.0000 C   0  0  0  0  0  0  0  0  0  0  0  0
    0.0000   -2.6681   -0.0002 H   0  0  0  0  0  0  0  0  0  0  0  0
   -2.4886    2.2957    0.0002 H   0  0  0  0  0  0  0  0  0  0  0  0
    2.5102    2.2934   -0.0174 H   0  0  0  0  0  0  0  0  0  0  0  0
   -2.4742   -2.6651    0.0000 H   0  0  0  0  0  0  0  0  0  0  0  0
    2.4743   -2.6651   -0.0003 H   0  0  0  0  0  0  0  0  0  0  0  0
   -4.5990    1.0547    0.0000 H   0  0  0  0  0  0  0  0  0  0  0  0
    4.5993    1.0544   -0.0038 H   0  0  0  0  0  0  0  0  0  0  0  0
   -4.5989   -1.4236    0.0000 H   0  0  0  0  0  0  0  0  0  0  0  0
    4.5989   -1.4236   -0.0010 H   0  0  0  0  0  0  0  0  0  0  0  0
    0.7267    2.9060    0.5550 H   0  0  0  0  0  0  0  0  0  0  0  0
  1  6  1  0  0  0  0
  1 25  1  0  0  0  0
  2  4  1  0  0  0  0
  2  6  2  0  0  0  0
  2  8  1  0  0  0  0
  3  5  1  0  0  0  0
  3  6  1  0  0  0  0
  3  9  2  0  0  0  0
  4  7  2  0  0  0  0
  4 10  1  0  0  0  0
  5  7  1  0  0  0  0
  5 11  2  0  0  0  0
  7 16  1  0  0  0  0
  8 12  2  0  0  0  0
  8 17  1  0  0  0  0
  9 13  1  0  0  0  0
  9 18  1  0  0  0  0
 10 14  2  0  0  0  0
 10 19  1  0  0  0  0
 11 15  1  0  0  0  0
 11 20  1  0  0  0  0
 12 14  1  0  0  0  0
 12 21  1  0  0  0  0
 13 15  2  0  0  0  0
 13 22  1  0  0  0  0
 14 23  1  0  0  0  0
 15 24  1  0  0  0  0
M  END
> <PUBCHEM_COMPOUND_CID>
10731

> <PUBCHEM_CONFORMER_RMSD>
0.4

> <PUBCHEM_CONFORMER_DIVERSEORDER>
1

> <PUBCHEM_MMFF94_PARTIAL_CHARGES>
21
1 -0.53
10 -0.15
11 -0.15
12 -0.15
13 -0.15
14 -0.15
15 -0.15
16 0.15
17 0.15
18 0.15
19 0.15
20 0.15
21 0.15
22 0.15
23 0.15
24 0.15
25 0.45
6 0.08
7 -0.15
8 -0.15
9 -0.15

> <PUBCHEM_EFFECTIVE_ROTOR_COUNT>
0

> <PUBCHEM_PHARMACOPHORE_FEATURES>
4
1 1 donor
6 2 3 4 5 6 7 rings
6 2 4 8 10 12 14 rings
6 3 5 9 11 13 15 rings

> <PUBCHEM_HEAVY_ATOM_COUNT>
15

> <PUBCHEM_ATOM_DEF_STEREO_COUNT>
0

> <PUBCHEM_ATOM_UDEF_STEREO_COUNT>
0

> <PUBCHEM_BOND_DEF_STEREO_COUNT>
0

> <PUBCHEM_BOND_UDEF_STEREO_COUNT>
0

> <PUBCHEM_ISOTOPIC_ATOM_COUNT>
0

> <PUBCHEM_COMPONENT_COUNT>
1

> <PUBCHEM_CACTVS_TAUTO_COUNT>
2

> <PUBCHEM_CONFORMER_ID>
000029EB00000001

> <PUBCHEM_MMFF94_ENERGY>
51.3519

> <PUBCHEM_FEATURE_SELFOVERLAP>
20.349

> <PUBCHEM_SHAPE_FINGERPRINT>
10608611 8 18410578383198267552
10967382 1 18410573989531067810
11132069 177 18409454686662096648
11471102 20 18410860957702183582
11806522 49 18339083666531898687
12032990 46 18410569587105180387
12382932 28 18408885156771318129
13140716 1 18410856606889776506
13221675 6 18410856563934958242
13296908 3 18411136935110368071
13380535 76 18410575084663553123
14144814 61 18410573989478151555
14325111 11 18410856559645109792
15196674 1 18410575088958111175
15219456 202 18409449193372629118
15442244 35 18194402427414901514
15536298 74 18334294262611059690
16945 1 18410575084663078918
17844478 74 17988920093783829013
18186145 218 17989490740097300030
193761 8 17689998259557602755
200 152 18041007215614586615
20201158 50 18411418418698164323
20510252 161 18260547869841292040
20645477 70 18336550507563390111
21029758 11 18334864904956676041
21267235 1 18410846664035607299
21501502 16 18410573993746699466
221490 88 18269548334592632834
2334 1 18410856529575161410
23402539 116 18261684730552055734
23402655 69 18335990847702240293
23463225 33 18412262843770474270
23559900 14 18336270145510294202
2748010 2 18410013234231880502
3312278 4 18410853265415697945
335352 9 18050567644557390686
34934 24 18410583885056499082
5104073 3 18411138038911513994
528886 8 18409735066411707770
537710 114 18411412895401883284
53812653 166 18334298626023695032
69090 78 18334018289445504231
7364860 26 18191587441166319168
8809292 202 18272365347986911059
9709674 26 18410006624409710854

> <PUBCHEM_SHAPE_MULTIPOLES>
302.82
6.29
2.02
0.61
0
0.41
0
-0.78
0
0
0
0
-0.02
0

> <PUBCHEM_SHAPE_SELFOVERLAP>
688.43

> <PUBCHEM_SHAPE_VOLUME>
159

> <PUBCHEM_COORDINATE_TYPE>
2
5
10

$$$$

