14008
  -OEChem-06241222412D

102102  0     0  0  0  0  0  0999 V2000
   14.4065    0.0000    0.0000 Cl  0  0  0  0  0  0  0  0  0  0  0  0
   15.6930    1.0839    0.0000 F   0  0  0  0  0  0  0  0  0  0  0  0
    9.2733   10.4375    0.0000 O   0  0  0  0  0  0  0  0  0  0  0  0
   14.1562    5.7193    0.0000 O   0  0  0  0  0  0  0  0  0  0  0  0
   11.0719   20.2224    0.0000 O   0  0  0  0  0  0  0  0  0  0  0  0
   15.4020   19.7224    0.0000 O   0  0  0  0  0  0  0  0  0  0  0  0
   15.4020   15.2152    0.0000 O   0  0  0  0  0  0  0  0  0  0  0  0
   11.0719   15.7152    0.0000 O   0  0  0  0  0  0  0  0  0  0  0  0
    0.5369   10.8612    0.0000 O   0  0  0  0  0  0  0  0  0  0  0  0
    4.8671   10.3612    0.0000 O   0  0  0  0  0  0  0  0  0  0  0  0
   11.9379   18.7224    0.0000 O   0  0  0  0  0  0  0  0  0  0  0  0
   14.5360   21.2224    0.0000 O   0  0  0  0  0  0  0  0  0  0  0  0
   14.5360   16.7152    0.0000 O   0  0  0  0  0  0  0  0  0  0  0  0
   11.9379   14.2152    0.0000 O   0  0  0  0  0  0  0  0  0  0  0  0
    1.4030    9.3612    0.0000 O   0  0  0  0  0  0  0  0  0  0  0  0
    4.0010   11.8612    0.0000 O   0  0  0  0  0  0  0  0  0  0  0  0
   11.4273    6.3927    0.0000 N   0  0  0  0  0  0  0  0  0  0  0  0
   10.8378    8.3038    0.0000 N   0  0  0  0  0  0  0  0  0  0  0  0
   13.9666    4.0365    0.0000 N   0  0  0  0  0  0  0  0  0  0  0  0
   16.2136    4.0365    0.0000 N   0  0  0  0  0  0  0  0  0  0  0  0
   12.1074    7.1257    0.0000 C   0  0  0  0  0  0  0  0  0  0  0  0
   10.4523    6.6152    0.0000 C   0  0  0  0  0  0  0  0  0  0  0  0
   11.8127    8.0813    0.0000 C   0  0  0  0  0  0  0  0  0  0  0  0
   10.1576    7.5708    0.0000 C   0  0  0  0  0  0  0  0  0  0  0  0
   11.7220    5.4371    0.0000 C   0  0  0  0  0  0  0  0  0  0  0  0
   10.5430    9.2594    0.0000 C   0  0  0  0  0  0  0  0  0  0  0  0
   12.6969    5.2146    0.0000 C   0  0  0  0  0  0  0  0  0  0  0  0
   12.9917    4.2590    0.0000 C   0  0  0  0  0  0  0  0  0  0  0  0
    9.5681    9.4819    0.0000 C   0  0  0  0  0  0  0  0  0  0  0  0
   14.1892    3.0616    0.0000 C   0  0  0  0  0  0  0  0  0  0  0  0
   14.5901    4.8183    0.0000 C   0  0  0  0  0  0  0  0  0  0  0  0
   15.0901    2.6277    0.0000 C   0  0  0  0  0  0  0  0  0  0  0  0
   15.5901    4.8183    0.0000 C   0  0  0  0  0  0  0  0  0  0  0  0
   13.3196    2.4881    0.0000 C   0  0  0  0  0  0  0  0  0  0  0  0
    8.2984   10.6600    0.0000 C   0  0  0  0  0  0  0  0  0  0  0  0
   15.9911    3.0616    0.0000 C   0  0  0  0  0  0  0  0  0  0  0  0
   15.1840    1.5903    0.0000 C   0  0  0  0  0  0  0  0  0  0  0  0
   13.3894    1.4489    0.0000 C   0  0  0  0  0  0  0  0  0  0  0  0
   14.3279    0.9969    0.0000 C   0  0  0  0  0  0  0  0  0  0  0  0
   16.7729    2.4381    0.0000 C   0  0  0  0  0  0  0  0  0  0  0  0
    8.0036   11.6156    0.0000 C   0  0  0  0  0  0  0  0  0  0  0  0
   16.6239    1.4493    0.0000 C   0  0  0  0  0  0  0  0  0  0  0  0
   17.7038    2.8034    0.0000 C   0  0  0  0  0  0  0  0  0  0  0  0
   17.4057    0.8258    0.0000 C   0  0  0  0  0  0  0  0  0  0  0  0
   18.4856    2.1799    0.0000 C   0  0  0  0  0  0  0  0  0  0  0  0
   18.3366    1.1911    0.0000 C   0  0  0  0  0  0  0  0  0  0  0  0
   12.8040   20.2224    0.0000 C   0  0  0  0  0  0  0  0  0  0  0  0
   13.6700   19.7224    0.0000 C   0  0  0  0  0  0  0  0  0  0  0  0
   13.6700   15.2152    0.0000 C   0  0  0  0  0  0  0  0  0  0  0  0
   12.8040   15.7152    0.0000 C   0  0  0  0  0  0  0  0  0  0  0  0
    2.2690   10.8612    0.0000 C   0  0  0  0  0  0  0  0  0  0  0  0
    3.1350   10.3612    0.0000 C   0  0  0  0  0  0  0  0  0  0  0  0
   11.9379   19.7224    0.0000 C   0  0  0  0  0  0  0  0  0  0  0  0
   14.5360   20.2224    0.0000 C   0  0  0  0  0  0  0  0  0  0  0  0
   14.5360   15.7152    0.0000 C   0  0  0  0  0  0  0  0  0  0  0  0
   11.9379   15.2152    0.0000 C   0  0  0  0  0  0  0  0  0  0  0  0
    1.4030   10.3612    0.0000 C   0  0  0  0  0  0  0  0  0  0  0  0
    4.0010   10.8612    0.0000 C   0  0  0  0  0  0  0  0  0  0  0  0
   12.6592    7.4086    0.0000 H   0  0  0  0  0  0  0  0  0  0  0  0
   12.4818    6.6315    0.0000 H   0  0  0  0  0  0  0  0  0  0  0  0
   10.4214    5.9960    0.0000 H   0  0  0  0  0  0  0  0  0  0  0  0
    9.8371    6.5381    0.0000 H   0  0  0  0  0  0  0  0  0  0  0  0
   11.8436    8.7005    0.0000 H   0  0  0  0  0  0  0  0  0  0  0  0
   12.4279    8.1584    0.0000 H   0  0  0  0  0  0  0  0  0  0  0  0
    9.6059    7.2879    0.0000 H   0  0  0  0  0  0  0  0  0  0  0  0
    9.7832    8.0650    0.0000 H   0  0  0  0  0  0  0  0  0  0  0  0
   11.6911    4.8179    0.0000 H   0  0  0  0  0  0  0  0  0  0  0  0
   11.1068    5.3600    0.0000 H   0  0  0  0  0  0  0  0  0  0  0  0
   10.5739    9.8786    0.0000 H   0  0  0  0  0  0  0  0  0  0  0  0
   11.1582    9.3365    0.0000 H   0  0  0  0  0  0  0  0  0  0  0  0
   12.7279    5.8338    0.0000 H   0  0  0  0  0  0  0  0  0  0  0  0
   13.3121    5.2917    0.0000 H   0  0  0  0  0  0  0  0  0  0  0  0
   12.9608    3.6398    0.0000 H   0  0  0  0  0  0  0  0  0  0  0  0
   12.3765    4.1819    0.0000 H   0  0  0  0  0  0  0  0  0  0  0  0
    9.5372    8.8627    0.0000 H   0  0  0  0  0  0  0  0  0  0  0  0
    8.9529    9.4048    0.0000 H   0  0  0  0  0  0  0  0  0  0  0  0
   15.4522    5.4228    0.0000 H   0  0  0  0  0  0  0  0  0  0  0  0
   16.1487    5.0873    0.0000 H   0  0  0  0  0  0  0  0  0  0  0  0
   12.7641    2.7636    0.0000 H   0  0  0  0  0  0  0  0  0  0  0  0
    8.2675   10.0408    0.0000 H   0  0  0  0  0  0  0  0  0  0  0  0
    7.6832   10.5829    0.0000 H   0  0  0  0  0  0  0  0  0  0  0  0
   15.7456    1.3278    0.0000 H   0  0  0  0  0  0  0  0  0  0  0  0
   12.8758    1.1016    0.0000 H   0  0  0  0  0  0  0  0  0  0  0  0
    8.5961   11.7983    0.0000 H   0  0  0  0  0  0  0  0  0  0  0  0
    7.8209   12.2081    0.0000 H   0  0  0  0  0  0  0  0  0  0  0  0
    7.4112   11.4328    0.0000 H   0  0  0  0  0  0  0  0  0  0  0  0
   17.7962    3.4165    0.0000 H   0  0  0  0  0  0  0  0  0  0  0  0
   17.3133    0.2127    0.0000 H   0  0  0  0  0  0  0  0  0  0  0  0
   19.0628    2.4064    0.0000 H   0  0  0  0  0  0  0  0  0  0  0  0
   18.8213    0.8045    0.0000 H   0  0  0  0  0  0  0  0  0  0  0  0
   12.8040   20.8424    0.0000 H   0  0  0  0  0  0  0  0  0  0  0  0
   13.6700   19.1024    0.0000 H   0  0  0  0  0  0  0  0  0  0  0  0
   13.6700   14.5952    0.0000 H   0  0  0  0  0  0  0  0  0  0  0  0
   12.8040   16.3352    0.0000 H   0  0  0  0  0  0  0  0  0  0  0  0
    2.2690   11.4812    0.0000 H   0  0  0  0  0  0  0  0  0  0  0  0
    3.1350    9.7412    0.0000 H   0  0  0  0  0  0  0  0  0  0  0  0
   10.5350   19.9124    0.0000 H   0  0  0  0  0  0  0  0  0  0  0  0
   15.9390   20.0324    0.0000 H   0  0  0  0  0  0  0  0  0  0  0  0
   15.9390   15.5252    0.0000 H   0  0  0  0  0  0  0  0  0  0  0  0
   10.5350   15.4052    0.0000 H   0  0  0  0  0  0  0  0  0  0  0  0
    0.0000   10.5512    0.0000 H   0  0  0  0  0  0  0  0  0  0  0  0
    5.4040   10.6712    0.0000 H   0  0  0  0  0  0  0  0  0  0  0  0
  1 39  1  0  0  0  0
  2 42  1  0  0  0  0
  3 29  1  0  0  0  0
  3 35  1  0  0  0  0
  4 31  2  0  0  0  0
  5 53  1  0  0  0  0
  5 97  1  0  0  0  0
  6 54  1  0  0  0  0
  6 98  1  0  0  0  0
  7 55  1  0  0  0  0
  7 99  1  0  0  0  0
  8 56  1  0  0  0  0
  8100  1  0  0  0  0
  9 57  1  0  0  0  0
  9101  1  0  0  0  0
 10 58  1  0  0  0  0
 10102  1  0  0  0  0
 11 53  2  0  0  0  0
 12 54  2  0  0  0  0
 13 55  2  0  0  0  0
 14 56  2  0  0  0  0
 15 57  2  0  0  0  0
 16 58  2  0  0  0  0
 17 21  1  0  0  0  0
 17 22  1  0  0  0  0
 17 25  1  0  0  0  0
 18 23  1  0  0  0  0
 18 24  1  0  0  0  0
 18 26  1  0  0  0  0
 19 28  1  0  0  0  0
 19 30  1  0  0  0  0
 19 31  1  0  0  0  0
 20 33  1  0  0  0  0
 20 36  2  0  0  0  0
 21 23  1  0  0  0  0
 21 59  1  0  0  0  0
 21 60  1  0  0  0  0
 22 24  1  0  0  0  0
 22 61  1  0  0  0  0
 22 62  1  0  0  0  0
 23 63  1  0  0  0  0
 23 64  1  0  0  0  0
 24 65  1  0  0  0  0
 24 66  1  0  0  0  0
 25 27  1  0  0  0  0
 25 67  1  0  0  0  0
 25 68  1  0  0  0  0
 26 29  1  0  0  0  0
 26 69  1  0  0  0  0
 26 70  1  0  0  0  0
 27 28  1  0  0  0  0
 27 71  1  0  0  0  0
 27 72  1  0  0  0  0
 28 73  1  0  0  0  0
 28 74  1  0  0  0  0
 29 75  1  0  0  0  0
 29 76  1  0  0  0  0
 30 32  2  0  0  0  0
 30 34  1  0  0  0  0
 31 33  1  0  0  0  0
 32 36  1  0  0  0  0
 32 37  1  0  0  0  0
 33 77  1  0  0  0  0
 33 78  1  0  0  0  0
 34 38  2  0  0  0  0
 34 79  1  0  0  0  0
 35 41  1  0  0  0  0
 35 80  1  0  0  0  0
 35 81  1  0  0  0  0
 36 40  1  0  0  0  0
 37 39  2  0  0  0  0
 37 82  1  0  0  0  0
 38 39  1  0  0  0  0
 38 83  1  0  0  0  0
 40 42  1  0  0  0  0
 40 43  2  0  0  0  0
 41 84  1  0  0  0  0
 41 85  1  0  0  0  0
 41 86  1  0  0  0  0
 42 44  2  0  0  0  0
 43 45  1  0  0  0  0
 43 87  1  0  0  0  0
 44 46  1  0  0  0  0
 44 88  1  0  0  0  0
 45 46  2  0  0  0  0
 45 89  1  0  0  0  0
 46 90  1  0  0  0  0
 47 48  2  3  0  0  0
 47 53  1  0  0  0  0
 47 91  1  0  0  0  0
 48 54  1  0  0  0  0
 48 92  1  0  0  0  0
 49 50  2  3  0  0  0
 49 55  1  0  0  0  0
 49 93  1  0  0  0  0
 50 56  1  0  0  0  0
 50 94  1  0  0  0  0
 51 52  2  3  0  0  0
 51 57  1  0  0  0  0
 51 95  1  0  0  0  0
 52 58  1  0  0  0  0
 52 96  1  0  0  0  0
M  END
> <PUBCHEM_COMPOUND_CID>
14008

> <PUBCHEM_COMPOUND_CANONICALIZED>
1

> <PUBCHEM_CACTVS_COMPLEXITY>
807

> <PUBCHEM_CACTVS_HBOND_ACCEPTOR>
18

> <PUBCHEM_CACTVS_HBOND_DONOR>
6

> <PUBCHEM_CACTVS_ROTATABLE_BOND>
15

> <PUBCHEM_CACTVS_SUBSKEYS>
AAADcfB/vQAEAAAAAAAAAAAAAAAAAAAAAAA8YIAABAAAAAABQAAAHwIACAAADArhmC4yyIMABgCoAyXyXACCAAAhBwAIiACoZtgKZKLB05GXMAhghgDY2YcQgMAOAABAIAACAAAAAIBAAAQAAAAAAAAAAA==

> <PUBCHEM_IUPAC_OPENEYE_NAME>
but-2-enedioic acid; 7-chloro-1-[3-[4-(2-ethoxyethyl)piperazin-1-yl]propyl]-5-(2-fluorophenyl)-3H-1,4-benzodiazepin-2-one

> <PUBCHEM_IUPAC_CAS_NAME>
but-2-enedioic acid; 7-chloro-1-[3-[4-(2-ethoxyethyl)-1-piperazinyl]propyl]-5-(2-fluorophenyl)-3H-1,4-benzodiazepin-2-one

> <PUBCHEM_IUPAC_NAME>
but-2-enedioic acid; 7-chloro-1-[3-[4-(2-ethoxyethyl)piperazin-1-yl]propyl]-5-(2-fluorophenyl)-3H-1,4-benzodiazepin-2-one

> <PUBCHEM_IUPAC_SYSTEMATIC_NAME>
but-2-enedioic acid; 7-chloranyl-1-[3-[4-(2-ethoxyethyl)piperazin-1-yl]propyl]-5-(2-fluorophenyl)-3H-1,4-benzodiazepin-2-one

> <PUBCHEM_IUPAC_TRADITIONAL_NAME>
but-2-enedioic acid; 7-chloro-1-[3-[4-(2-ethoxyethyl)piperazino]propyl]-5-(2-fluorophenyl)-3H-1,4-benzodiazepin-2-one

> <PUBCHEM_IUPAC_INCHI>
InChI=1S/C26H32ClFN4O2.3C4H4O4/c1-2-34-17-16-31-14-12-30(13-15-31)10-5-11-32-24-9-8-20(27)18-22(24)26(29-19-25(32)33)21-6-3-4-7-23(21)28;3*5-3(6)1-2-4(7)8/h3-4,6-9,18H,2,5,10-17,19H2,1H3;3*1-2H,(H,5,6)(H,7,8)

> <PUBCHEM_IUPAC_INCHIKEY>
TZNBMFANWFWPGS-UHFFFAOYSA-N

> <PUBCHEM_XLOGP3_AA>
2.494

> <PUBCHEM_EXACT_MASS>
834.252658

> <PUBCHEM_MOLECULAR_FORMULA>
C38H44ClFN4O14

> <PUBCHEM_MOLECULAR_WEIGHT>
835.225763

> <PUBCHEM_OPENEYE_CAN_SMILES>
CCOCCN1CCN(CC1)CCCN2C(=O)CN=C(C3=C2C=CC(=C3)Cl)C4=CC=CC=C4F.C(=CC(=O)O)C(=O)O.C(=CC(=O)O)C(=O)O.C(=CC(=O)O)C(=O)O

> <PUBCHEM_OPENEYE_ISO_SMILES>
CCOCCN1CCN(CC1)CCCN2C(=O)CN=C(C3=C2C=CC(=C3)Cl)C4=CC=CC=C4F.C(=CC(=O)O)C(=O)O.C(=CC(=O)O)C(=O)O.C(=CC(=O)O)C(=O)O

> <PUBCHEM_CACTVS_TPSA>
272

> <PUBCHEM_MONOISOTOPIC_WEIGHT>
834.252658

> <PUBCHEM_TOTAL_CHARGE>
0

> <PUBCHEM_HEAVY_ATOM_COUNT>
58

> <PUBCHEM_ATOM_DEF_STEREO_COUNT>
0

> <PUBCHEM_ATOM_UDEF_STEREO_COUNT>
0

> <PUBCHEM_BOND_DEF_STEREO_COUNT>
0

> <PUBCHEM_BOND_UDEF_STEREO_COUNT>
3

> <PUBCHEM_ISOTOPIC_ATOM_COUNT>
0

> <PUBCHEM_COMPONENT_COUNT>
4

> <PUBCHEM_CACTVS_TAUTO_COUNT>
1

> <PUBCHEM_COORDINATE_TYPE>
1
5
255

> <PUBCHEM_BONDANNOTATIONS>
30  32  8
30  34  8
32  37  8
34  38  8
37  39  8
38  39  8
40  42  8
40  43  8
42  44  8
43  45  8
44  46  8
45  46  8
47  48  1
49  50  1
51  52  1

$$$$

