586231
  -OEChem-06241222452D

 35 36  0     0  0  0  0  0  0999 V2000
    2.8660    1.6962    0.0000 O   0  0  0  0  0  0  0  0  0  0  0  0
    4.5981    2.6962    0.0000 O   0  0  0  0  0  0  0  0  0  0  0  0
    6.3301   -1.3038    0.0000 N   0  0  0  0  0  0  0  0  0  0  0  0
    7.1962   -1.8038    0.0000 C   0  0  0  0  0  0  0  0  0  0  0  0
    7.3007   -2.7983    0.0000 C   0  0  0  0  0  0  0  0  0  0  0  0
    8.1097   -1.3970    0.0000 C   0  0  0  0  0  0  0  0  0  0  0  0
    8.2788   -3.0062    0.0000 C   0  0  0  0  0  0  0  0  0  0  0  0
    8.7788   -2.1402    0.0000 C   0  0  0  0  0  0  0  0  0  0  0  0
    6.3301   -0.3038    0.0000 C   0  0  0  0  0  0  0  0  0  0  0  0
    5.4641    0.1962    0.0000 C   0  0  0  0  0  0  0  0  0  0  0  0
    5.4641    1.1962    0.0000 C   0  0  0  0  0  0  0  0  0  0  0  0
    4.5981   -0.3038    0.0000 C   0  0  0  0  0  0  0  0  0  0  0  0
    4.5981    1.6962    0.0000 C   0  0  0  0  0  0  0  0  0  0  0  0
    3.7320    0.1962    0.0000 C   0  0  0  0  0  0  0  0  0  0  0  0
    3.7320    1.1962    0.0000 C   0  0  0  0  0  0  0  0  0  0  0  0
    2.0000    1.1962    0.0000 C   0  0  0  0  0  0  0  0  0  0  0  0
    6.6762   -2.1415    0.0000 H   0  0  0  0  0  0  0  0  0  0  0  0
    6.6807   -2.7983    0.0000 H   0  0  0  0  0  0  0  0  0  0  0  0
    7.2359   -3.4149    0.0000 H   0  0  0  0  0  0  0  0  0  0  0  0
    8.6113   -1.0326    0.0000 H   0  0  0  0  0  0  0  0  0  0  0  0
    7.7997   -0.8601    0.0000 H   0  0  0  0  0  0  0  0  0  0  0  0
    8.0872   -3.5959    0.0000 H   0  0  0  0  0  0  0  0  0  0  0  0
    8.8452   -3.2584    0.0000 H   0  0  0  0  0  0  0  0  0  0  0  0
    9.2804   -2.5046    0.0000 H   0  0  0  0  0  0  0  0  0  0  0  0
    9.1937   -1.6794    0.0000 H   0  0  0  0  0  0  0  0  0  0  0  0
    5.7932   -1.6138    0.0000 H   0  0  0  0  0  0  0  0  0  0  0  0
    6.9407   -0.4114    0.0000 H   0  0  0  0  0  0  0  0  0  0  0  0
    6.5422    0.2788    0.0000 H   0  0  0  0  0  0  0  0  0  0  0  0
    6.0010    1.5062    0.0000 H   0  0  0  0  0  0  0  0  0  0  0  0
    4.5981   -0.9238    0.0000 H   0  0  0  0  0  0  0  0  0  0  0  0
    3.1951   -0.1138    0.0000 H   0  0  0  0  0  0  0  0  0  0  0  0
    5.1350    3.0062    0.0000 H   0  0  0  0  0  0  0  0  0  0  0  0
    1.6900    1.7332    0.0000 H   0  0  0  0  0  0  0  0  0  0  0  0
    1.4631    0.8862    0.0000 H   0  0  0  0  0  0  0  0  0  0  0  0
    2.3100    0.6593    0.0000 H   0  0  0  0  0  0  0  0  0  0  0  0
  1 15  1  0  0  0  0
  1 16  1  0  0  0  0
  2 13  1  0  0  0  0
  2 32  1  0  0  0  0
  3  4  1  0  0  0  0
  3  9  1  0  0  0  0
  3 26  1  0  0  0  0
  4  5  1  0  0  0  0
  4  6  1  0  0  0  0
  4 17  1  0  0  0  0
  5  7  1  0  0  0  0
  5 18  1  0  0  0  0
  5 19  1  0  0  0  0
  6  8  1  0  0  0  0
  6 20  1  0  0  0  0
  6 21  1  0  0  0  0
  7  8  1  0  0  0  0
  7 22  1  0  0  0  0
  7 23  1  0  0  0  0
  8 24  1  0  0  0  0
  8 25  1  0  0  0  0
  9 10  1  0  0  0  0
  9 27  1  0  0  0  0
  9 28  1  0  0  0  0
 10 11  2  0  0  0  0
 10 12  1  0  0  0  0
 11 13  1  0  0  0  0
 11 29  1  0  0  0  0
 12 14  2  0  0  0  0
 12 30  1  0  0  0  0
 13 15  2  0  0  0  0
 14 15  1  0  0  0  0
 14 31  1  0  0  0  0
 16 33  1  0  0  0  0
 16 34  1  0  0  0  0
 16 35  1  0  0  0  0
M  END
> <PUBCHEM_COMPOUND_CID>
586231

> <PUBCHEM_COMPOUND_CANONICALIZED>
1

> <PUBCHEM_CACTVS_COMPLEXITY>
204

> <PUBCHEM_CACTVS_HBOND_ACCEPTOR>
3

> <PUBCHEM_CACTVS_HBOND_DONOR>
2

> <PUBCHEM_CACTVS_ROTATABLE_BOND>
4

> <PUBCHEM_CACTVS_SUBSKEYS>
AAADceByMAAAAAAAAAAAAAAAAAAAAYAAAAAwAAAAAAAAAAABAAAAHgAQCAAADCzBmAYyBoLABgCAAiBCAACCCAAgIAAIiIAOjIgNJiKGsRuEcCtk0BGLuAew0BIOIAABAAAAQABAAAIAAACAAAAAAAAAAA==

> <PUBCHEM_IUPAC_OPENEYE_NAME>
5-[(cyclopentylamino)methyl]-2-methoxy-phenol

> <PUBCHEM_IUPAC_CAS_NAME>
5-[(cyclopentylamino)methyl]-2-methoxyphenol

> <PUBCHEM_IUPAC_NAME>
5-[(cyclopentylamino)methyl]-2-methoxyphenol

> <PUBCHEM_IUPAC_SYSTEMATIC_NAME>
5-[(cyclopentylamino)methyl]-2-methoxy-phenol

> <PUBCHEM_IUPAC_TRADITIONAL_NAME>
5-[(cyclopentylamino)methyl]-2-methoxy-phenol

> <PUBCHEM_IUPAC_INCHI>
InChI=1S/C13H19NO2/c1-16-13-7-6-10(8-12(13)15)9-14-11-4-2-3-5-11/h6-8,11,14-15H,2-5,9H2,1H3

> <PUBCHEM_IUPAC_INCHIKEY>
LLBZOPCUDSZSNX-UHFFFAOYSA-N

> <PUBCHEM_XLOGP3_AA>
2.2

> <PUBCHEM_EXACT_MASS>
221.141579

> <PUBCHEM_MOLECULAR_FORMULA>
C13H19NO2

> <PUBCHEM_MOLECULAR_WEIGHT>
221.29546

> <PUBCHEM_OPENEYE_CAN_SMILES>
COC1=C(C=C(C=C1)CNC2CCCC2)O

> <PUBCHEM_OPENEYE_ISO_SMILES>
COC1=C(C=C(C=C1)CNC2CCCC2)O

> <PUBCHEM_CACTVS_TPSA>
41.5

> <PUBCHEM_MONOISOTOPIC_WEIGHT>
221.141579

> <PUBCHEM_TOTAL_CHARGE>
0

> <PUBCHEM_HEAVY_ATOM_COUNT>
16

> <PUBCHEM_ATOM_DEF_STEREO_COUNT>
0

> <PUBCHEM_ATOM_UDEF_STEREO_COUNT>
0

> <PUBCHEM_BOND_DEF_STEREO_COUNT>
0

> <PUBCHEM_BOND_UDEF_STEREO_COUNT>
0

> <PUBCHEM_ISOTOPIC_ATOM_COUNT>
0

> <PUBCHEM_COMPONENT_COUNT>
1

> <PUBCHEM_CACTVS_TAUTO_COUNT>
3

> <PUBCHEM_COORDINATE_TYPE>
1
5
255

> <PUBCHEM_BONDANNOTATIONS>
10  11  8
10  12  8
11  13  8
12  14  8
13  15  8
14  15  8

$$$$

