13730
  -OEChem-06241222403D

 31 33  0     1  0  0  0  0  0999 V2000
   -2.0313   -0.2627    0.9720 O   0  0  0  0  0  0  0  0  0  0  0  0
   -3.8147    1.6277   -1.5048 O   0  0  0  0  0  0  0  0  0  0  0  0
   -4.3906   -1.7747    1.2676 O   0  0  0  0  0  0  0  0  0  0  0  0
    0.1796   -0.0398    0.1477 N   0  0  0  0  0  0  0  0  0  0  0  0
    1.4360   -1.6550   -0.7454 N   0  0  0  0  0  0  0  0  0  0  0  0
    1.9245    1.4960    0.8550 N   0  0  0  0  0  0  0  0  0  0  0  0
    4.1418    0.6378    0.3045 N   0  0  0  0  0  0  0  0  0  0  0  0
    4.4700   -1.4617   -0.7962 N   0  0  0  0  0  0  0  0  0  0  0  0
   -1.0188    0.6821    0.5776 C   0  0  1  0  0  0  0  0  0  0  0  0
   -2.8078    0.7817   -0.9887 C   0  0  1  0  0  0  0  0  0  0  0  0
   -1.6181    1.5780   -0.5001 C   0  0  0  0  0  0  0  0  0  0  0  0
   -3.2452    0.0693    0.2799 C   0  0  1  0  0  0  0  0  0  0  0  0
   -4.0485   -1.1926    0.0221 C   0  0  0  0  0  0  0  0  0  0  0  0
    1.4790    0.3627    0.2920 C   0  0  0  0  0  0  0  0  0  0  0  0
    0.2084   -1.2588   -0.4811 C   0  0  0  0  0  0  0  0  0  0  0  0
    2.2402   -0.6510   -0.2676 C   0  0  0  0  0  0  0  0  0  0  0  0
    3.6213   -0.4839   -0.2489 C   0  0  0  0  0  0  0  0  0  0  0  0
    3.2739    1.5447    0.8145 C   0  0  0  0  0  0  0  0  0  0  0  0
   -0.7359    1.2630    1.4627 H   0  0  0  0  0  0  0  0  0  0  0  0
   -2.4917    0.0752   -1.7652 H   0  0  0  0  0  0  0  0  0  0  0  0
   -0.9238    1.8402   -1.3051 H   0  0  0  0  0  0  0  0  0  0  0  0
   -1.9563    2.5229   -0.0558 H   0  0  0  0  0  0  0  0  0  0  0  0
   -3.8205    0.7382    0.9334 H   0  0  0  0  0  0  0  0  0  0  0  0
   -3.4577   -1.9257   -0.5367 H   0  0  0  0  0  0  0  0  0  0  0  0
   -4.9678   -0.9720   -0.5287 H   0  0  0  0  0  0  0  0  0  0  0  0
   -0.6892   -1.8099   -0.7262 H   0  0  0  0  0  0  0  0  0  0  0  0
   -4.5755    1.0698   -1.7392 H   0  0  0  0  0  0  0  0  0  0  0  0
   -4.9016   -2.5796    1.0772 H   0  0  0  0  0  0  0  0  0  0  0  0
    3.7252    2.4302    1.2493 H   0  0  0  0  0  0  0  0  0  0  0  0
    4.0839   -2.2995   -1.2100 H   0  0  0  0  0  0  0  0  0  0  0  0
    5.4702   -1.3174   -0.7708 H   0  0  0  0  0  0  0  0  0  0  0  0
  1  9  1  0  0  0  0
  1 12  1  0  0  0  0
  2 10  1  0  0  0  0
  2 27  1  0  0  0  0
  3 13  1  0  0  0  0
  3 28  1  0  0  0  0
  4  9  1  0  0  0  0
  4 14  1  0  0  0  0
  4 15  1  0  0  0  0
  5 15  2  0  0  0  0
  5 16  1  0  0  0  0
  6 14  2  0  0  0  0
  6 18  1  0  0  0  0
  7 17  1  0  0  0  0
  7 18  2  0  0  0  0
  8 17  1  0  0  0  0
  8 30  1  0  0  0  0
  8 31  1  0  0  0  0
  9 11  1  0  0  0  0
  9 19  1  0  0  0  0
 10 11  1  0  0  0  0
 10 12  1  0  0  0  0
 10 20  1  0  0  0  0
 11 21  1  0  0  0  0
 11 22  1  0  0  0  0
 12 13  1  0  0  0  0
 12 23  1  0  0  0  0
 13 24  1  0  0  0  0
 13 25  1  0  0  0  0
 14 16  1  0  0  0  0
 15 26  1  0  0  0  0
 16 17  2  0  0  0  0
 18 29  1  0  0  0  0
M  END
> <PUBCHEM_COMPOUND_CID>
13730

> <PUBCHEM_CONFORMER_RMSD>
0.6

> <PUBCHEM_CONFORMER_DIVERSEORDER>
3
2
13
12
4
9
5
7
6
11
8
14
10
1

> <PUBCHEM_MMFF94_PARTIAL_CHARGES>
23
1 -0.56
10 0.28
12 0.28
13 0.28
14 0.11
15 0.04
16 0.23
17 0.41
18 0.47
2 -0.68
26 0.15
27 0.4
28 0.4
29 0.15
3 -0.68
30 0.4
31 0.4
4 0.05
5 -0.57
6 -0.57
7 -0.62
8 -0.9
9 0.54

> <PUBCHEM_EFFECTIVE_ROTOR_COUNT>
3

> <PUBCHEM_PHARMACOPHORE_FEATURES>
13
1 1 acceptor
1 2 acceptor
1 2 donor
1 3 acceptor
1 3 donor
1 8 cation
1 8 donor
3 4 5 15 cation
3 4 6 14 cation
3 6 7 18 cation
5 1 9 10 11 12 rings
5 4 5 14 15 16 rings
6 6 7 14 16 17 18 rings

> <PUBCHEM_HEAVY_ATOM_COUNT>
18

> <PUBCHEM_ATOM_DEF_STEREO_COUNT>
3

> <PUBCHEM_ATOM_UDEF_STEREO_COUNT>
0

> <PUBCHEM_BOND_DEF_STEREO_COUNT>
0

> <PUBCHEM_BOND_UDEF_STEREO_COUNT>
0

> <PUBCHEM_ISOTOPIC_ATOM_COUNT>
0

> <PUBCHEM_COMPONENT_COUNT>
1

> <PUBCHEM_CACTVS_TAUTO_COUNT>
3

> <PUBCHEM_CONFORMER_ID>
000035A200000003

> <PUBCHEM_MMFF94_ENERGY>
39.8081

> <PUBCHEM_FEATURE_SELFOVERLAP>
66.575

> <PUBCHEM_SHAPE_FINGERPRINT>
10608611 8 18410580612302254885
11471102 20 18186808006323425748
11543360 7 17560787828101882078
11615757 297 17894348882174925739
12032990 46 18334007328757302574
12236239 1 16298106488757406129
12403259 226 18409732876263379176
12403259 415 18410011022540247640
13296908 3 18410014338323396529
13583140 156 17630638689206971472
13760787 5 17385445422906756580
14289901 80 17704069603179716977
15219456 202 18409452487786676913
15653759 3 18201999945087776001
16945 1 18113619027647278942
18175812 5 18412548729604959533
18186145 218 18409729594665570680
19026448 4 18413393141586768884
19026448 5 16487257690065270592
19141452 34 18337102355770214603
19422 9 15936416619445879317
200 152 17531256088183194469
20645477 70 17968104169405525271
21065201 7 17917436444509580256
21079973 296 18271805675351830443
221490 88 18335698364655881862
22943178 12 18411986874904991733
23402539 116 17775571948209105231
23402655 69 18040723592642901668
23532345 42 18059576845288100669
23557571 272 18201716275936704213
23559900 14 18201163268684879786
2748010 2 18115869603542977870
2871803 45 18341338816525693159
3268164 11 17560810918041257415
474 4 16083369570029647680
5104073 3 18335138717342180642
633830 44 17530953696610302748
77492 1 16298106483987841177
81228 2 17395604704252578938

> <PUBCHEM_SHAPE_MULTIPOLES>
327.92
8.68
1.81
1.06
0.48
0.05
-0.06
1.45
-0.03
0.12
-0.1
0.75
-0.1
1.89

> <PUBCHEM_SHAPE_SELFOVERLAP>
712.613

> <PUBCHEM_SHAPE_VOLUME>
177.5

> <PUBCHEM_COORDINATE_TYPE>
2
5
10

$$$$

