9139
  -OEChem-06261203262D

 50 57  0     0  0  0  0  0  0999 V2000
    6.7739   -2.7891    0.0000 C   0  0  0  0  0  0  0  0  0  0  0  0
    5.9079   -2.2891    0.0000 C   0  0  0  0  0  0  0  0  0  0  0  0
    5.9079   -1.2891    0.0000 C   0  0  0  0  0  0  0  0  0  0  0  0
    6.7900   -3.8306    0.0000 C   0  0  0  0  0  0  0  0  0  0  0  0
    6.7739   -0.7891    0.0000 C   0  0  0  0  0  0  0  0  0  0  0  0
    7.6399   -2.2891    0.0000 C   0  0  0  0  0  0  0  0  0  0  0  0
    4.9898    0.2594    0.0000 C   0  0  0  0  0  0  0  0  0  0  0  0
    5.8919    0.7802    0.0000 C   0  0  0  0  0  0  0  0  0  0  0  0
    7.6399   -1.2891    0.0000 C   0  0  0  0  0  0  0  0  0  0  0  0
    5.8919   -4.3584    0.0000 C   0  0  0  0  0  0  0  0  0  0  0  0
    4.9979   -0.7822    0.0000 C   0  0  0  0  0  0  0  0  0  0  0  0
    7.6671   -4.2934    0.0000 C   0  0  0  0  0  0  0  0  0  0  0  0
    6.7900    0.2524    0.0000 C   0  0  0  0  0  0  0  0  0  0  0  0
    4.9979   -2.7959    0.0000 C   0  0  0  0  0  0  0  0  0  0  0  0
    8.4994   -2.7839    0.0000 C   0  0  0  0  0  0  0  0  0  0  0  0
    4.9898   -3.8375    0.0000 C   0  0  0  0  0  0  0  0  0  0  0  0
    4.0336    1.8723    0.0000 C   0  0  0  0  0  0  0  0  0  0  0  0
    4.9732    2.4148    0.0000 C   0  0  0  0  0  0  0  0  0  0  0  0
    4.0420    0.7873    0.0000 C   0  0  0  0  0  0  0  0  0  0  0  0
    5.9086    1.8650    0.0000 C   0  0  0  0  0  0  0  0  0  0  0  0
    8.5128   -3.7755    0.0000 C   0  0  0  0  0  0  0  0  0  0  0  0
    5.9180   -5.3998    0.0000 C   0  0  0  0  0  0  0  0  0  0  0  0
    7.7172   -5.3340    0.0000 C   0  0  0  0  0  0  0  0  0  0  0  0
    3.0462    2.4222    0.0000 C   0  0  0  0  0  0  0  0  0  0  0  0
    4.9906    3.5448    0.0000 C   0  0  0  0  0  0  0  0  0  0  0  0
    6.8368   -5.8909    0.0000 C   0  0  0  0  0  0  0  0  0  0  0  0
    3.0375    3.5523    0.0000 C   0  0  0  0  0  0  0  0  0  0  0  0
    4.0163    4.1174    0.0000 C   0  0  0  0  0  0  0  0  0  0  0  0
    2.0091    4.1251    0.0000 C   0  0  0  0  0  0  0  0  0  0  0  0
    4.0344    5.2945    0.0000 C   0  0  0  0  0  0  0  0  0  0  0  0
    2.0000    5.3023    0.0000 C   0  0  0  0  0  0  0  0  0  0  0  0
    3.0195    5.8909    0.0000 C   0  0  0  0  0  0  0  0  0  0  0  0
    8.1768   -0.9791    0.0000 H   0  0  0  0  0  0  0  0  0  0  0  0
    4.4646   -1.0984    0.0000 H   0  0  0  0  0  0  0  0  0  0  0  0
    7.3304    0.5562    0.0000 H   0  0  0  0  0  0  0  0  0  0  0  0
    4.4646   -2.4798    0.0000 H   0  0  0  0  0  0  0  0  0  0  0  0
    9.0340   -2.4699    0.0000 H   0  0  0  0  0  0  0  0  0  0  0  0
    4.4517   -4.1455    0.0000 H   0  0  0  0  0  0  0  0  0  0  0  0
    3.5086    0.4711    0.0000 H   0  0  0  0  0  0  0  0  0  0  0  0
    6.4491    2.1688    0.0000 H   0  0  0  0  0  0  0  0  0  0  0  0
    9.0558   -4.0748    0.0000 H   0  0  0  0  0  0  0  0  0  0  0  0
    5.3902   -5.7252    0.0000 H   0  0  0  0  0  0  0  0  0  0  0  0
    8.2674   -5.6199    0.0000 H   0  0  0  0  0  0  0  0  0  0  0  0
    2.5129    2.1060    0.0000 H   0  0  0  0  0  0  0  0  0  0  0  0
    5.5311    3.8486    0.0000 H   0  0  0  0  0  0  0  0  0  0  0  0
    6.8595   -6.5105    0.0000 H   0  0  0  0  0  0  0  0  0  0  0  0
    1.4758    3.8090    0.0000 H   0  0  0  0  0  0  0  0  0  0  0  0
    4.5749    5.5982    0.0000 H   0  0  0  0  0  0  0  0  0  0  0  0
    1.4619    5.6102    0.0000 H   0  0  0  0  0  0  0  0  0  0  0  0
    3.0219    6.5109    0.0000 H   0  0  0  0  0  0  0  0  0  0  0  0
  1  2  2  0  0  0  0
  1  4  1  0  0  0  0
  1  6  1  0  0  0  0
  2  3  1  0  0  0  0
  2 14  1  0  0  0  0
  3  5  1  0  0  0  0
  3 11  2  0  0  0  0
  4 10  1  0  0  0  0
  4 12  2  0  0  0  0
  5  9  1  0  0  0  0
  5 13  2  0  0  0  0
  6  9  2  0  0  0  0
  6 15  1  0  0  0  0
  7  8  1  0  0  0  0
  7 11  1  0  0  0  0
  7 19  2  0  0  0  0
  8 13  1  0  0  0  0
  8 20  2  0  0  0  0
  9 33  1  0  0  0  0
 10 16  1  0  0  0  0
 10 22  2  0  0  0  0
 11 34  1  0  0  0  0
 12 21  1  0  0  0  0
 12 23  1  0  0  0  0
 13 35  1  0  0  0  0
 14 16  2  0  0  0  0
 14 36  1  0  0  0  0
 15 21  2  0  0  0  0
 15 37  1  0  0  0  0
 16 38  1  0  0  0  0
 17 18  1  0  0  0  0
 17 19  1  0  0  0  0
 17 24  2  0  0  0  0
 18 20  1  0  0  0  0
 18 25  2  0  0  0  0
 19 39  1  0  0  0  0
 20 40  1  0  0  0  0
 21 41  1  0  0  0  0
 22 26  1  0  0  0  0
 22 42  1  0  0  0  0
 23 26  2  0  0  0  0
 23 43  1  0  0  0  0
 24 27  1  0  0  0  0
 24 44  1  0  0  0  0
 25 28  1  0  0  0  0
 25 45  1  0  0  0  0
 26 46  1  0  0  0  0
 27 28  1  0  0  0  0
 27 29  2  0  0  0  0
 28 30  2  0  0  0  0
 29 31  1  0  0  0  0
 29 47  1  0  0  0  0
 30 32  1  0  0  0  0
 30 48  1  0  0  0  0
 31 32  2  0  0  0  0
 31 49  1  0  0  0  0
 32 50  1  0  0  0  0
M  END
> <PUBCHEM_COMPOUND_CID>
9139

> <PUBCHEM_COMPOUND_CANONICALIZED>
1

> <PUBCHEM_CACTVS_COMPLEXITY>
709

> <PUBCHEM_CACTVS_HBOND_ACCEPTOR>
0

> <PUBCHEM_CACTVS_HBOND_DONOR>
0

> <PUBCHEM_CACTVS_ROTATABLE_BOND>
0

> <PUBCHEM_CACTVS_SUBSKEYS>
AAADceB8AAAAAAAAAAAAAAAAAAAAAAAAAAAwYMGDAAAAAADBVAAAGAAAAAAADACAGAAwAMAAAACAAiBCAAACAAAgAAAIiAAAAIgIICKAERCAIAAggAAIiAcAgMAOwAACAAAQAACAAAQAACAAAAAAAAAAAA==

> <PUBCHEM_IUPAC_INCHI>
InChI=1S/C32H18/c1-2-5-22-13-25-16-27-18-30-28(17-26(27)15-24(25)12-21(22)4-1)14-23-9-8-19-6-3-7-20-10-11-29(30)32(23)31(19)20/h1-18H

> <PUBCHEM_IUPAC_INCHIKEY>
RLMDUEKVWUJGGA-UHFFFAOYSA-N

> <PUBCHEM_XLOGP3_AA>
9.9

> <PUBCHEM_EXACT_MASS>
402.140851

> <PUBCHEM_MOLECULAR_FORMULA>
C32H18

> <PUBCHEM_MOLECULAR_WEIGHT>
402.48532

> <PUBCHEM_OPENEYE_CAN_SMILES>
C1=CC=C2C=C3C=C4C=C5C6=C7C(=CC5=CC4=CC3=CC2=C1)C=CC8=C7C(=CC=C8)C=C6

> <PUBCHEM_OPENEYE_ISO_SMILES>
C1=CC=C2C=C3C=C4C=C5C6=C7C(=CC5=CC4=CC3=CC2=C1)C=CC8=C7C(=CC=C8)C=C6

> <PUBCHEM_CACTVS_TPSA>
0

> <PUBCHEM_MONOISOTOPIC_WEIGHT>
402.140851

> <PUBCHEM_TOTAL_CHARGE>
0

> <PUBCHEM_HEAVY_ATOM_COUNT>
32

> <PUBCHEM_ATOM_DEF_STEREO_COUNT>
0

> <PUBCHEM_ATOM_UDEF_STEREO_COUNT>
0

> <PUBCHEM_BOND_DEF_STEREO_COUNT>
0

> <PUBCHEM_BOND_UDEF_STEREO_COUNT>
0

> <PUBCHEM_ISOTOPIC_ATOM_COUNT>
0

> <PUBCHEM_COMPONENT_COUNT>
1

> <PUBCHEM_CACTVS_TAUTO_COUNT>
1

> <PUBCHEM_COORDINATE_TYPE>
1
5
255

> <PUBCHEM_BONDANNOTATIONS>
1  2  8
1  4  8
1  6  8
10  16  8
10  22  8
12  21  8
12  23  8
14  16  8
15  21  8
17  18  8
17  19  8
17  24  8
18  20  8
18  25  8
2  14  8
2  3  8
22  26  8
23  26  8
24  27  8
25  28  8
27  28  8
27  29  8
28  30  8
29  31  8
3  11  8
3  5  8
30  32  8
31  32  8
4  10  8
4  12  8
5  13  8
5  9  8
6  15  8
6  9  8
7  11  8
7  19  8
7  8  8
8  13  8
8  20  8

$$$$

