9683
  -OEChem-06261203563D

 44 46  0     0  0  0  0  0  0999 V2000
   -0.1894    4.8344   -0.1869 Cl  0  0  0  0  0  0  0  0  0  0  0  0
    3.6139   -0.1730    0.0613 S   0  0  0  0  0  0  0  0  0  0  0  0
   -4.3035   -0.2964   -0.1802 N   0  3  0  0  0  0  0  0  0  0  0  0
    0.5513   -0.2304    0.5925 N   0  0  0  0  0  0  0  0  0  0  0  0
   -3.2653   -0.2687    0.8791 C   0  0  0  0  0  0  0  0  0  0  0  0
   -1.8892   -0.2408    0.2259 C   0  0  0  0  0  0  0  0  0  0  0  0
   -0.7602   -0.2598    1.2529 C   0  0  0  0  0  0  0  0  0  0  0  0
   -4.1763    0.9254   -1.1010 C   0  0  0  0  0  0  0  0  0  0  0  0
   -4.1692   -1.5592   -1.0427 C   0  0  0  0  0  0  0  0  0  0  0  0
   -5.7104   -0.2860    0.4338 C   0  0  0  0  0  0  0  0  0  0  0  0
    1.0980    1.0407    0.2830 C   0  0  0  0  0  0  0  0  0  0  0  0
    1.1404   -1.4753    0.2550 C   0  0  0  0  0  0  0  0  0  0  0  0
    2.4700    1.1917   -0.0003 C   0  0  0  0  0  0  0  0  0  0  0  0
    2.5164   -1.5736   -0.0314 C   0  0  0  0  0  0  0  0  0  0  0  0
    0.2969    2.2012    0.2083 C   0  0  0  0  0  0  0  0  0  0  0  0
    0.3789   -2.6602    0.1547 C   0  0  0  0  0  0  0  0  0  0  0  0
    3.0057    2.4535   -0.3139 C   0  0  0  0  0  0  0  0  0  0  0  0
    3.0941   -2.8093   -0.3732 C   0  0  0  0  0  0  0  0  0  0  0  0
    0.8337    3.4521   -0.1088 C   0  0  0  0  0  0  0  0  0  0  0  0
    0.9572   -3.8849   -0.1901 C   0  0  0  0  0  0  0  0  0  0  0  0
    2.1901    3.5788   -0.3668 C   0  0  0  0  0  0  0  0  0  0  0  0
    2.3169   -3.9601   -0.4513 C   0  0  0  0  0  0  0  0  0  0  0  0
   -3.3901   -1.1584    1.5077 H   0  0  0  0  0  0  0  0  0  0  0  0
   -3.4255    0.6230    1.4969 H   0  0  0  0  0  0  0  0  0  0  0  0
   -1.7583   -1.0893   -0.4458 H   0  0  0  0  0  0  0  0  0  0  0  0
   -1.7806    0.6354   -0.4124 H   0  0  0  0  0  0  0  0  0  0  0  0
   -0.8648    0.5822    1.9506 H   0  0  0  0  0  0  0  0  0  0  0  0
   -0.8527   -1.1357    1.9091 H   0  0  0  0  0  0  0  0  0  0  0  0
   -4.0939    1.8217   -0.4794 H   0  0  0  0  0  0  0  0  0  0  0  0
   -3.3137    0.8121   -1.7620 H   0  0  0  0  0  0  0  0  0  0  0  0
   -5.0795    0.9793   -1.7178 H   0  0  0  0  0  0  0  0  0  0  0  0
   -3.3048   -1.4755   -1.7053 H   0  0  0  0  0  0  0  0  0  0  0  0
   -4.0852   -2.4251   -0.3796 H   0  0  0  0  0  0  0  0  0  0  0  0
   -5.0702   -1.6454   -1.6587 H   0  0  0  0  0  0  0  0  0  0  0  0
   -5.8159    0.6285    1.0248 H   0  0  0  0  0  0  0  0  0  0  0  0
   -6.4489   -0.3095   -0.3729 H   0  0  0  0  0  0  0  0  0  0  0  0
   -5.8086   -1.1698    1.0708 H   0  0  0  0  0  0  0  0  0  0  0  0
   -0.7650    2.1782    0.4276 H   0  0  0  0  0  0  0  0  0  0  0  0
   -0.6860   -2.6877    0.3602 H   0  0  0  0  0  0  0  0  0  0  0  0
    4.0674    2.5726   -0.5213 H   0  0  0  0  0  0  0  0  0  0  0  0
    4.1590   -2.8882   -0.5828 H   0  0  0  0  0  0  0  0  0  0  0  0
    0.3414   -4.7778   -0.2489 H   0  0  0  0  0  0  0  0  0  0  0  0
    2.6267    4.5426   -0.6140 H   0  0  0  0  0  0  0  0  0  0  0  0
    2.7717   -4.9095   -0.7166 H   0  0  0  0  0  0  0  0  0  0  0  0
  1 19  1  0  0  0  0
  2 13  1  0  0  0  0
  2 14  1  0  0  0  0
  3  5  1  0  0  0  0
  3  8  1  0  0  0  0
  3  9  1  0  0  0  0
  3 10  1  0  0  0  0
  4  7  1  0  0  0  0
  4 11  1  0  0  0  0
  4 12  1  0  0  0  0
  5  6  1  0  0  0  0
  5 23  1  0  0  0  0
  5 24  1  0  0  0  0
  6  7  1  0  0  0  0
  6 25  1  0  0  0  0
  6 26  1  0  0  0  0
  7 27  1  0  0  0  0
  7 28  1  0  0  0  0
  8 29  1  0  0  0  0
  8 30  1  0  0  0  0
  8 31  1  0  0  0  0
  9 32  1  0  0  0  0
  9 33  1  0  0  0  0
  9 34  1  0  0  0  0
 10 35  1  0  0  0  0
 10 36  1  0  0  0  0
 10 37  1  0  0  0  0
 11 13  2  0  0  0  0
 11 15  1  0  0  0  0
 12 14  1  0  0  0  0
 12 16  2  0  0  0  0
 13 17  1  0  0  0  0
 14 18  2  0  0  0  0
 15 19  2  0  0  0  0
 15 38  1  0  0  0  0
 16 20  1  0  0  0  0
 16 39  1  0  0  0  0
 17 21  2  0  0  0  0
 17 40  1  0  0  0  0
 18 22  1  0  0  0  0
 18 41  1  0  0  0  0
 19 21  1  0  0  0  0
 20 22  2  0  0  0  0
 20 42  1  0  0  0  0
 21 43  1  0  0  0  0
 22 44  1  0  0  0  0
M  CHG  1   3   1
M  END
> <PUBCHEM_COMPOUND_CID>
9683

> <PUBCHEM_CONFORMER_RMSD>
0.8

> <PUBCHEM_CONFORMER_DIVERSEORDER>
1
3
5
2
4

> <PUBCHEM_MMFF94_PARTIAL_CHARGES>
28
1 -0.18
10 0.5
11 0.1
12 0.1
13 0.1
14 0.1
15 -0.15
16 -0.15
17 -0.15
18 -0.15
19 0.18
2 -0.2
20 -0.15
21 -0.15
22 -0.15
3 -1.01
38 0.15
39 0.15
4 -0.57
40 0.15
41 0.15
42 0.15
43 0.15
44 0.15
5 0.5
7 0.37
8 0.5
9 0.5

> <PUBCHEM_EFFECTIVE_ROTOR_COUNT>
4.4

> <PUBCHEM_PHARMACOPHORE_FEATURES>
5
1 3 cation
1 4 cation
6 11 13 15 17 19 21 rings
6 12 14 16 18 20 22 rings
6 2 4 11 12 13 14 rings

> <PUBCHEM_HEAVY_ATOM_COUNT>
22

> <PUBCHEM_ATOM_DEF_STEREO_COUNT>
0

> <PUBCHEM_ATOM_UDEF_STEREO_COUNT>
0

> <PUBCHEM_BOND_DEF_STEREO_COUNT>
0

> <PUBCHEM_BOND_UDEF_STEREO_COUNT>
0

> <PUBCHEM_ISOTOPIC_ATOM_COUNT>
0

> <PUBCHEM_COMPONENT_COUNT>
1

> <PUBCHEM_CACTVS_TAUTO_COUNT>
1

> <PUBCHEM_CONFORMER_ID>
000025D300000001

> <PUBCHEM_MMFF94_ENERGY>
86.164

> <PUBCHEM_FEATURE_SELFOVERLAP>
25.402

> <PUBCHEM_SHAPE_FINGERPRINT>
10411042 1 18122903393721383226
10693767 8 18114172060585148422
10967382 1 18410849954528805626
1100329 8 18266178340744898002
11578080 2 17317920157659069688
116883 192 17978234081706668881
12553582 1 18122609806846980378
12730499 353 18268982095337613867
12788726 201 17550384480860822499
13004483 165 17834122213973439987
13009979 54 17750503164932572955
13140716 1 18267589005699890482
138480 1 18410572937184712199
13911987 19 18198317625465816692
14114211 80 17837180724783783925
14251757 5 17693096679488852605
14790565 3 18339065009479450988
15420108 30 17834692499905316880
16087824 20 17474384059980977089
17134986 127 18123747552478963616
17539 30 17617945076535665838
1813 80 17971177369083447639
18785283 64 18341605963380546395
19591789 44 17833543501284086723
19930381 70 18411703145392288661
20567600 299 18409739447642937533
20642791 105 17687195184049586570
20645477 70 18413670201701213323
20775438 99 17474995314866522861
21307412 95 17829009202148649564
21478907 32 17978508964066842417
21524375 3 17840877273937668353
221357 26 18270406113367249101
221490 88 18412257325044194763
2255824 54 18408885109695833563
23419403 2 17630075812806038598
23558518 356 17839733013440975418
23559900 14 18410015437956642763
238 59 18195817266998938563
266924 87 18267861860382131044
2748010 2 18050546475412720178
3060560 45 18338235959966852932
3380486 145 17833249197793957936
350125 39 17547280108537339504
352729 6 17904190439199141194
3886686 26 17396728397158721080
46194498 28 18343309167374740295
474 4 18337670811201348155
5281201 14 18342458179576330735
6025842 7 18409730621711594919
6287921 2 18200591385415598911
6443956 14 18340485676573745644
7164475 11 17835232725081052326
81228 2 17836085945792470408
8272917 22 18409161100315538967

> <PUBCHEM_SHAPE_MULTIPOLES>
448.51
7.84
6.01
0.89
13.43
2.9
-0.01
-2.52
1.09
-5.48
1.15
0.58
-0.08
0.08

> <PUBCHEM_SHAPE_SELFOVERLAP>
925.807

> <PUBCHEM_SHAPE_VOLUME>
260.7

> <PUBCHEM_COORDINATE_TYPE>
2
5
10

$$$$

