7847049
  -OEChem-06241222483D

 56 58  0     0  0  0  0  0  0999 V2000
   -1.4793   -0.1651   -0.3043 O   0  0  0  0  0  0  0  0  0  0  0  0
   -2.4167   -0.3612   -2.3976 O   0  0  0  0  0  0  0  0  0  0  0  0
    0.6156    0.0335    1.3908 O   0  0  0  0  0  0  0  0  0  0  0  0
    3.4054    0.0926    1.6184 O   0  0  0  0  0  0  0  0  0  0  0  0
   -6.2396   -0.2301    0.8860 N   0  0  0  0  0  0  0  0  0  0  0  0
    4.4728   -0.0878   -0.4663 N   0  0  0  0  0  0  0  0  0  0  0  0
    2.1755   -0.1069   -0.3417 N   0  0  0  0  0  0  0  0  0  0  0  0
   -4.3600   -1.4261   -0.0444 C   0  0  0  0  0  0  0  0  0  0  0  0
   -3.8076   -0.2251   -0.4657 C   0  0  0  0  0  0  0  0  0  0  0  0
   -5.5677   -1.3740    0.6216 C   0  0  0  0  0  0  0  0  0  0  0  0
   -4.4708    0.9832   -0.2123 C   0  0  0  0  0  0  0  0  0  0  0  0
   -5.7011    0.9338    0.4759 C   0  0  0  0  0  0  0  0  0  0  0  0
   -6.2201   -2.6286    1.1034 C   0  0  0  0  0  0  0  0  0  0  0  0
   -3.6797   -2.7300   -0.2979 C   0  0  0  0  0  0  0  0  0  0  0  0
   -3.9378    2.2160   -0.6257 C   0  0  0  0  0  0  0  0  0  0  0  0
   -6.3594    2.1345    0.7273 C   0  0  0  0  0  0  0  0  0  0  0  0
   -2.5278   -0.2601   -1.1734 C   0  0  0  0  0  0  0  0  0  0  0  0
   -7.1560   -3.2309    0.0599 C   0  0  0  0  0  0  0  0  0  0  0  0
   -4.6175    3.4014   -0.3609 C   0  0  0  0  0  0  0  0  0  0  0  0
   -5.8297    3.3603    0.3165 C   0  0  0  0  0  0  0  0  0  0  0  0
    6.8290   -0.1131   -1.1125 C   0  0  0  0  0  0  0  0  0  0  0  0
    5.8450   -0.0376   -0.1268 C   0  0  0  0  0  0  0  0  0  0  0  0
    8.5409    0.0650    0.5829 C   0  0  0  0  0  0  0  0  0  0  0  0
    8.1769   -0.0617   -0.7576 C   0  0  0  0  0  0  0  0  0  0  0  0
    6.2088    0.0894    1.2138 C   0  0  0  0  0  0  0  0  0  0  0  0
   -0.1683   -0.1868   -0.8791 C   0  0  0  0  0  0  0  0  0  0  0  0
    7.5568    0.1407    1.5686 C   0  0  0  0  0  0  0  0  0  0  0  0
    6.4682   -0.2493   -2.5562 C   0  0  0  0  0  0  0  0  0  0  0  0
    9.9820    0.1199    0.9628 C   0  0  0  0  0  0  0  0  0  0  0  0
    0.8890   -0.0740    0.1987 C   0  0  0  0  0  0  0  0  0  0  0  0
    3.3733   -0.0220    0.3958 C   0  0  0  0  0  0  0  0  0  0  0  0
   -5.4873   -3.3722    1.4340 H   0  0  0  0  0  0  0  0  0  0  0  0
   -6.8100   -2.3945    1.9996 H   0  0  0  0  0  0  0  0  0  0  0  0
   -2.8613   -2.6678   -1.0203 H   0  0  0  0  0  0  0  0  0  0  0  0
   -4.3691   -3.4702   -0.7137 H   0  0  0  0  0  0  0  0  0  0  0  0
   -3.2563   -3.1189    0.6345 H   0  0  0  0  0  0  0  0  0  0  0  0
   -2.9918    2.2816   -1.1574 H   0  0  0  0  0  0  0  0  0  0  0  0
   -7.3107    2.1292    1.2563 H   0  0  0  0  0  0  0  0  0  0  0  0
   -7.9533   -2.5271   -0.2032 H   0  0  0  0  0  0  0  0  0  0  0  0
   -7.6243   -4.1386    0.4538 H   0  0  0  0  0  0  0  0  0  0  0  0
   -6.6296   -3.4940   -0.8623 H   0  0  0  0  0  0  0  0  0  0  0  0
   -4.2028    4.3522   -0.6816 H   0  0  0  0  0  0  0  0  0  0  0  0
   -6.3668    4.2804    0.5274 H   0  0  0  0  0  0  0  0  0  0  0  0
    8.9483   -0.1221   -1.5218 H   0  0  0  0  0  0  0  0  0  0  0  0
    5.5126    0.1532    2.0371 H   0  0  0  0  0  0  0  0  0  0  0  0
   -0.0587    0.6591   -1.5671 H   0  0  0  0  0  0  0  0  0  0  0  0
   -0.0226   -1.1308   -1.4163 H   0  0  0  0  0  0  0  0  0  0  0  0
    7.8289    0.2376    2.6165 H   0  0  0  0  0  0  0  0  0  0  0  0
    5.9024   -1.1714   -2.7263 H   0  0  0  0  0  0  0  0  0  0  0  0
    5.8763    0.6103   -2.8878 H   0  0  0  0  0  0  0  0  0  0  0  0
    7.3572   -0.2941   -3.1950 H   0  0  0  0  0  0  0  0  0  0  0  0
    4.2573   -0.1816   -1.4542 H   0  0  0  0  0  0  0  0  0  0  0  0
   10.3714   -0.8929    1.1062 H   0  0  0  0  0  0  0  0  0  0  0  0
   10.5745    0.6187    0.1882 H   0  0  0  0  0  0  0  0  0  0  0  0
   10.1269    0.6850    1.8899 H   0  0  0  0  0  0  0  0  0  0  0  0
    2.2623   -0.1994   -1.3503 H   0  0  0  0  0  0  0  0  0  0  0  0
  1 17  1  0  0  0  0
  1 26  1  0  0  0  0
  2 17  2  0  0  0  0
  3 30  2  0  0  0  0
  4 31  2  0  0  0  0
  5 10  2  0  0  0  0
  5 12  1  0  0  0  0
  6 22  1  0  0  0  0
  6 31  1  0  0  0  0
  6 52  1  0  0  0  0
  7 30  1  0  0  0  0
  7 31  1  0  0  0  0
  7 56  1  0  0  0  0
  8  9  2  0  0  0  0
  8 10  1  0  0  0  0
  8 14  1  0  0  0  0
  9 11  1  0  0  0  0
  9 17  1  0  0  0  0
 10 13  1  0  0  0  0
 11 12  1  0  0  0  0
 11 15  2  0  0  0  0
 12 16  2  0  0  0  0
 13 18  1  0  0  0  0
 13 32  1  0  0  0  0
 13 33  1  0  0  0  0
 14 34  1  0  0  0  0
 14 35  1  0  0  0  0
 14 36  1  0  0  0  0
 15 19  1  0  0  0  0
 15 37  1  0  0  0  0
 16 20  1  0  0  0  0
 16 38  1  0  0  0  0
 18 39  1  0  0  0  0
 18 40  1  0  0  0  0
 18 41  1  0  0  0  0
 19 20  2  0  0  0  0
 19 42  1  0  0  0  0
 20 43  1  0  0  0  0
 21 22  2  0  0  0  0
 21 24  1  0  0  0  0
 21 28  1  0  0  0  0
 22 25  1  0  0  0  0
 23 24  2  0  0  0  0
 23 27  1  0  0  0  0
 23 29  1  0  0  0  0
 24 44  1  0  0  0  0
 25 27  2  0  0  0  0
 25 45  1  0  0  0  0
 26 30  1  0  0  0  0
 26 46  1  0  0  0  0
 26 47  1  0  0  0  0
 27 48  1  0  0  0  0
 28 49  1  0  0  0  0
 28 50  1  0  0  0  0
 28 51  1  0  0  0  0
 29 53  1  0  0  0  0
 29 54  1  0  0  0  0
 29 55  1  0  0  0  0
M  END
> <PUBCHEM_COMPOUND_CID>
7847049

> <PUBCHEM_CONFORMER_RMSD>
1

> <PUBCHEM_CONFORMER_DIVERSEORDER>
1
202
292
196
197
25
128
310
178
149
120
237
39
285
26
122
89
118
301
62
263
214
48
166
278
45
10
314
287
4
326
111
328
8
141
155
136
114
181
171
295
22
249
247
316
173
268
79
162
46
257
153
254
33
129
163
50
321
31
280
322
323
201
152
55
66
119
69
180
165
309
232
313
234
161
134
29
175
82
300
248
84
251
288
198
176
18
36
266
105
110
255
72
315
220
81
94
228
245
83
186
168
64
49
43
284
20
282
318
116
304
190
207
267
320
325
96
68
9
274
279
73
242
51
78
264
170
95
273
307
167
174
2
188
19
191
324
260
233
126
3
13
253
131
308
158
221
238
239
86
139
160
203
28
125
27
133
92
56
302
60
193
67
159
70
225
47
270
63
144
172
305
112
52
80
30
192
226
262
104
311
211
209
117
88
216
213
71
37
150
14
123
235
240
244
132
91
258
259
115
109
156
222
312
215
169
145
293
183
61
230
177
93
24
182
41
286
246
291
5
77
296
90
59
148
218
227
102
107
289
298
76
58
241
195
199
113
185
189
231
98
317
157
147
299
17
303
21
277
16
87
138
212
44
74
250
210
100
205
204
34
252
223
142
140
121
35
261
187
294
42
151
276
97
179
6
281
135
143
297
127
130
290
23
103
11
272
7
101
12
269
275
53
40
256
137
271
85
283
265
32
236
54
15
154
206
146
200
99
229
65
57
327
208
329
108
184
319
306
219
243
217
224
106
194
75
124
164
38

> <PUBCHEM_MMFF94_PARTIAL_CHARGES>
38
1 -0.43
10 0.17
12 0.31
13 0.14
14 0.14
15 -0.15
16 -0.15
17 0.63
19 -0.15
2 -0.57
20 -0.15
21 -0.14
22 0.12
23 -0.14
24 -0.15
25 -0.15
26 0.34
27 -0.15
28 0.14
29 0.14
3 -0.57
30 0.57
31 0.69
37 0.15
38 0.15
4 -0.57
42 0.15
43 0.15
44 0.15
45 0.15
48 0.15
5 -0.62
52 0.37
56 0.37
6 -0.55
7 -0.49
8 -0.14
9 0.09

> <PUBCHEM_EFFECTIVE_ROTOR_COUNT>
9

> <PUBCHEM_PHARMACOPHORE_FEATURES>
10
1 18 hydrophobe
1 2 acceptor
1 3 acceptor
1 4 acceptor
1 5 acceptor
1 6 donor
1 7 donor
6 11 12 15 16 19 20 rings
6 21 22 23 24 25 27 rings
6 5 8 9 10 11 12 rings

> <PUBCHEM_HEAVY_ATOM_COUNT>
31

> <PUBCHEM_ATOM_DEF_STEREO_COUNT>
0

> <PUBCHEM_ATOM_UDEF_STEREO_COUNT>
0

> <PUBCHEM_BOND_DEF_STEREO_COUNT>
0

> <PUBCHEM_BOND_UDEF_STEREO_COUNT>
0

> <PUBCHEM_ISOTOPIC_ATOM_COUNT>
0

> <PUBCHEM_COMPONENT_COUNT>
1

> <PUBCHEM_CACTVS_TAUTO_COUNT>
10

> <PUBCHEM_CONFORMER_ID>
0077BC8900000001

> <PUBCHEM_MMFF94_ENERGY>
95.6479

> <PUBCHEM_FEATURE_SELFOVERLAP>
50.829

> <PUBCHEM_SHAPE_FINGERPRINT>
10100884 174 17986391079818542707
10299344 5 17846779603111844346
10411042 1 18195243310099768699
11135926 11 18201729487251299510
11315181 36 18060138730801587741
12082328 90 18411984667592676894
12089408 11 18060701694146267576
12104220 1 16845568730043474001
12664476 115 18041000644067054961
13885169 127 18410573989810577890
14118638 360 18342746225574163643
14251764 18 17203608182032534938
14849402 71 17703497802011693980
14856354 85 18272367551568858423
14933364 13 18408040715152122076
15021287 119 17131827672934739997
15183329 4 16486978380248014690
15419008 47 17967537882891100840
15419008 91 18040729064980123312
15444296 121 18272928293586966003
15510794 2 18040151829733074302
1577012 14 17703785938481933132
17093844 174 17967818240674432591
17780758 139 18202003227318320927
21095123 145 18336544928685494654
21315759 40 17418374684231506294
21756936 100 18335426785610628767
21792961 116 17822007648855524490
23081809 10 17561081410797011412
23522609 53 17559933546296231316
23559900 14 15719690783199634794
335507 130 18261672576290493494
3663271 9 18130510811741742218
4169191 19 15357694197741681812
4339292 15 18187371974559136703
4938544 92 18341897433126105997
5265222 85 18263075531426099006
6009941 240 18260829323332395617
9896288 288 18412257347104405531
9953998 17 18409163325525446985

> <PUBCHEM_SHAPE_MULTIPOLES>
599.55
30.48
2.77
1.54
58.64
0.68
-0.56
-1.04
5.92
-11.72
0.22
2.38
-0.13
0.66

> <PUBCHEM_SHAPE_SELFOVERLAP>
1290.467

> <PUBCHEM_SHAPE_VOLUME>
330.5

> <PUBCHEM_COORDINATE_TYPE>
2
5
10

$$$$

