8195
  -OEChem-06261202383D

 39 38  0     0  0  0  0  0  0999 V2000
   -7.8752   -0.5375    0.0436 S   0  0  0  0  0  0  0  0  0  0  0  0
    0.0291   -0.3573   -0.0388 C   0  0  0  0  0  0  0  0  0  0  0  0
    1.3070    0.4846    0.0114 C   0  0  0  0  0  0  0  0  0  0  0  0
   -1.2525    0.4829    0.0089 C   0  0  0  0  0  0  0  0  0  0  0  0
    2.5878   -0.3563    0.0354 C   0  0  0  0  0  0  0  0  0  0  0  0
   -2.5313   -0.3558   -0.0641 C   0  0  0  0  0  0  0  0  0  0  0  0
    3.8689    0.4805    0.0106 C   0  0  0  0  0  0  0  0  0  0  0  0
   -3.8103    0.4891   -0.0276 C   0  0  0  0  0  0  0  0  0  0  0  0
    5.1125   -0.4109    0.0465 C   0  0  0  0  0  0  0  0  0  0  0  0
   -5.0905   -0.3543   -0.0164 C   0  0  0  0  0  0  0  0  0  0  0  0
    6.3943    0.4193   -0.0174 C   0  0  0  0  0  0  0  0  0  0  0  0
   -6.3707    0.4807    0.0235 C   0  0  0  0  0  0  0  0  0  0  0  0
    7.6311   -0.4648   -0.0157 C   0  0  0  0  0  0  0  0  0  0  0  0
    0.0321   -0.9610   -0.9546 H   0  0  0  0  0  0  0  0  0  0  0  0
    0.0266   -1.0595    0.8040 H   0  0  0  0  0  0  0  0  0  0  0  0
    1.3290    1.1523   -0.8586 H   0  0  0  0  0  0  0  0  0  0  0  0
    1.2846    1.1251    0.9017 H   0  0  0  0  0  0  0  0  0  0  0  0
   -1.2608    1.0736    0.9331 H   0  0  0  0  0  0  0  0  0  0  0  0
   -1.2441    1.1971   -0.8237 H   0  0  0  0  0  0  0  0  0  0  0  0
    2.5853   -1.0338   -0.8277 H   0  0  0  0  0  0  0  0  0  0  0  0
    2.5830   -0.9877    0.9327 H   0  0  0  0  0  0  0  0  0  0  0  0
   -2.5425   -1.0629    0.7745 H   0  0  0  0  0  0  0  0  0  0  0  0
   -2.5218   -0.9540   -0.9835 H   0  0  0  0  0  0  0  0  0  0  0  0
    3.8827    1.0988   -0.8949 H   0  0  0  0  0  0  0  0  0  0  0  0
    3.8786    1.1626    0.8692 H   0  0  0  0  0  0  0  0  0  0  0  0
   -3.8247    1.1591   -0.8959 H   0  0  0  0  0  0  0  0  0  0  0  0
   -3.7956    1.1262    0.8653 H   0  0  0  0  0  0  0  0  0  0  0  0
    5.1084   -1.0128    0.9634 H   0  0  0  0  0  0  0  0  0  0  0  0
    5.0867   -1.1097   -0.7987 H   0  0  0  0  0  0  0  0  0  0  0  0
   -5.0979   -0.9929   -0.9090 H   0  0  0  0  0  0  0  0  0  0  0  0
   -5.0632   -1.0225    0.8540 H   0  0  0  0  0  0  0  0  0  0  0  0
    6.3951    1.0345   -0.9248 H   0  0  0  0  0  0  0  0  0  0  0  0
    6.4378    1.1030    0.8383 H   0  0  0  0  0  0  0  0  0  0  0  0
   -6.4173    1.1388   -0.8502 H   0  0  0  0  0  0  0  0  0  0  0  0
   -6.3781    1.1146    0.9162 H   0  0  0  0  0  0  0  0  0  0  0  0
    7.6775   -1.0725    0.8936 H   0  0  0  0  0  0  0  0  0  0  0  0
    8.5360    0.1493   -0.0604 H   0  0  0  0  0  0  0  0  0  0  0  0
    7.6340   -1.1374   -0.8794 H   0  0  0  0  0  0  0  0  0  0  0  0
   -8.7472    0.4808    0.0770 H   0  0  0  0  0  0  0  0  0  0  0  0
  1 12  1  0  0  0  0
  1 39  1  0  0  0  0
  2  3  1  0  0  0  0
  2  4  1  0  0  0  0
  2 14  1  0  0  0  0
  2 15  1  0  0  0  0
  3  5  1  0  0  0  0
  3 16  1  0  0  0  0
  3 17  1  0  0  0  0
  4  6  1  0  0  0  0
  4 18  1  0  0  0  0
  4 19  1  0  0  0  0
  5  7  1  0  0  0  0
  5 20  1  0  0  0  0
  5 21  1  0  0  0  0
  6  8  1  0  0  0  0
  6 22  1  0  0  0  0
  6 23  1  0  0  0  0
  7  9  1  0  0  0  0
  7 24  1  0  0  0  0
  7 25  1  0  0  0  0
  8 10  1  0  0  0  0
  8 26  1  0  0  0  0
  8 27  1  0  0  0  0
  9 11  1  0  0  0  0
  9 28  1  0  0  0  0
  9 29  1  0  0  0  0
 10 12  1  0  0  0  0
 10 30  1  0  0  0  0
 10 31  1  0  0  0  0
 11 13  1  0  0  0  0
 11 32  1  0  0  0  0
 11 33  1  0  0  0  0
 12 34  1  0  0  0  0
 12 35  1  0  0  0  0
 13 36  1  0  0  0  0
 13 37  1  0  0  0  0
 13 38  1  0  0  0  0
M  END
> <PUBCHEM_COMPOUND_CID>
8195

> <PUBCHEM_CONFORMER_RMSD>
1

> <PUBCHEM_CONFORMER_DIVERSEORDER>
1
308
279
917
692
88
2
476
742
814
577
502
177
225
9
6
483
236
923
889
246
367
625
582
102
267
322
61
792
39
799
913
53
825
664
169
111
366
311
27
924
106
564
824
467
861
914
596
109
854
195
831
452
4
128
200
178
55
375
47
284
865
63
578
224
51
673
813
427
221
537
594
125
572
50
868
547
172
305
838
28
309
675
735
793
91
76
403
99
347
726
404
710
794
426
779
18
786
105
57
14
888
208
152
527
805
297
12
170
512
17
666
769
879
89
191
689
414
206
282
521
772
809
306
134
37
242
912
887
526
20
898
583
164
493
64
24
700
408
187
70
250
791
371
876
500
173
65
574
764

> <PUBCHEM_MMFF94_PARTIAL_CHARGES>
3
1 -0.41
12 0.23
39 0.18

> <PUBCHEM_EFFECTIVE_ROTOR_COUNT>
10

> <PUBCHEM_PHARMACOPHORE_FEATURES>
1
1 13 hydrophobe

> <PUBCHEM_HEAVY_ATOM_COUNT>
13

> <PUBCHEM_ATOM_DEF_STEREO_COUNT>
0

> <PUBCHEM_ATOM_UDEF_STEREO_COUNT>
0

> <PUBCHEM_BOND_DEF_STEREO_COUNT>
0

> <PUBCHEM_BOND_UDEF_STEREO_COUNT>
0

> <PUBCHEM_ISOTOPIC_ATOM_COUNT>
0

> <PUBCHEM_COMPONENT_COUNT>
1

> <PUBCHEM_CACTVS_TAUTO_COUNT>
1

> <PUBCHEM_CONFORMER_ID>
0000200300000001

> <PUBCHEM_MMFF94_ENERGY>
-1.2533

> <PUBCHEM_FEATURE_SELFOVERLAP>
5.074

> <PUBCHEM_SHAPE_FINGERPRINT>
12091667 2 18059856169472503137
13533116 47 16845304873143697648
14123256 10 18410573993757235987
14251764 18 18410573998046909059
14251764 46 18410855460128181291
14729087 3 7204781371874976059
17834076 25 18410856563934763365
18006028 8 18186521003486701241
20621476 8 18341895216120757615
21315763 28 18411419513930752989
22224240 67 17988926656552061658
23402539 116 17821453447397148453
23521765 1 18335420170664673285
246663 6 18410289211655863327
33532 11 18341897428557143762
33684 2 18412546518166085827
42788 4 18410856563982392044
8209 1 18410856559639796085

> <PUBCHEM_SHAPE_MULTIPOLES>
271.38
24.21
0.82
0.62
1.89
0
0
-2.74
-0.2
0.1
0
0.05
0
0

> <PUBCHEM_SHAPE_SELFOVERLAP>
469.423

> <PUBCHEM_SHAPE_VOLUME>
179.9

> <PUBCHEM_COORDINATE_TYPE>
2
5
10

$$$$

