9248
  -OEChem-06261203323D

 35 36  0     1  0  0  0  0  0999 V2000
    2.7666    0.9741   -0.5144 O   0  0  0  0  0  0  0  0  0  0  0  0
    1.3378    1.1149   -0.5067 C   0  0  1  0  0  0  0  0  0  0  0  0
    2.0321    0.0014    0.2446 C   0  0  1  0  0  0  0  0  0  0  0  0
    0.8544    2.3527    0.1799 C   0  0  0  0  0  0  0  0  0  0  0  0
    2.1063   -1.3845   -0.3217 C   0  0  0  0  0  0  0  0  0  0  0  0
   -0.4815    2.1853    0.9135 C   0  0  0  0  0  0  0  0  0  0  0  0
    1.3345   -2.4155    0.5091 C   0  0  0  0  0  0  0  0  0  0  0  0
   -1.7353    2.2163    0.0239 C   0  0  0  0  0  0  0  0  0  0  0  0
   -0.1428   -2.0860    0.7444 C   0  0  0  0  0  0  0  0  0  0  0  0
   -2.0794    0.9054   -0.6883 C   0  0  0  0  0  0  0  0  0  0  0  0
   -0.9816   -2.0674   -0.5357 C   0  0  0  0  0  0  0  0  0  0  0  0
   -2.5817   -0.1896    0.2595 C   0  0  0  0  0  0  0  0  0  0  0  0
   -2.4295   -1.6072   -0.3082 C   0  0  0  0  0  0  0  0  0  0  0  0
    0.8403    0.9145   -1.4432 H   0  0  0  0  0  0  0  0  0  0  0  0
    2.1335    0.0481    1.3201 H   0  0  0  0  0  0  0  0  0  0  0  0
    0.7837    3.1669   -0.5506 H   0  0  0  0  0  0  0  0  0  0  0  0
    1.6030    2.6690    0.9183 H   0  0  0  0  0  0  0  0  0  0  0  0
    3.1594   -1.6903   -0.3500 H   0  0  0  0  0  0  0  0  0  0  0  0
    1.7565   -1.3997   -1.3602 H   0  0  0  0  0  0  0  0  0  0  0  0
   -0.5688    3.0365    1.6021 H   0  0  0  0  0  0  0  0  0  0  0  0
   -0.4603    1.2903    1.5421 H   0  0  0  0  0  0  0  0  0  0  0  0
    1.8195   -2.5081    1.4894 H   0  0  0  0  0  0  0  0  0  0  0  0
    1.4181   -3.3967    0.0264 H   0  0  0  0  0  0  0  0  0  0  0  0
   -1.6239    3.0096   -0.7255 H   0  0  0  0  0  0  0  0  0  0  0  0
   -2.5931    2.5022    0.6462 H   0  0  0  0  0  0  0  0  0  0  0  0
   -0.2045   -1.1291    1.2686 H   0  0  0  0  0  0  0  0  0  0  0  0
   -0.5620   -2.8361    1.4267 H   0  0  0  0  0  0  0  0  0  0  0  0
   -1.2259    0.5716   -1.2747 H   0  0  0  0  0  0  0  0  0  0  0  0
   -2.8735    1.1075   -1.4188 H   0  0  0  0  0  0  0  0  0  0  0  0
   -1.0040   -3.0811   -0.9553 H   0  0  0  0  0  0  0  0  0  0  0  0
   -0.5133   -1.4389   -1.2975 H   0  0  0  0  0  0  0  0  0  0  0  0
   -3.6467   -0.0095    0.4556 H   0  0  0  0  0  0  0  0  0  0  0  0
   -2.0964   -0.1312    1.2368 H   0  0  0  0  0  0  0  0  0  0  0  0
   -2.9186   -2.3100    0.3777 H   0  0  0  0  0  0  0  0  0  0  0  0
   -2.9722   -1.6721   -1.2592 H   0  0  0  0  0  0  0  0  0  0  0  0
  1  2  1  0  0  0  0
  1  3  1  0  0  0  0
  2  3  1  0  0  0  0
  2  4  1  0  0  0  0
  2 14  1  0  0  0  0
  3  5  1  0  0  0  0
  3 15  1  0  0  0  0
  4  6  1  0  0  0  0
  4 16  1  0  0  0  0
  4 17  1  0  0  0  0
  5  7  1  0  0  0  0
  5 18  1  0  0  0  0
  5 19  1  0  0  0  0
  6  8  1  0  0  0  0
  6 20  1  0  0  0  0
  6 21  1  0  0  0  0
  7  9  1  0  0  0  0
  7 22  1  0  0  0  0
  7 23  1  0  0  0  0
  8 10  1  0  0  0  0
  8 24  1  0  0  0  0
  8 25  1  0  0  0  0
  9 11  1  0  0  0  0
  9 26  1  0  0  0  0
  9 27  1  0  0  0  0
 10 12  1  0  0  0  0
 10 28  1  0  0  0  0
 10 29  1  0  0  0  0
 11 13  1  0  0  0  0
 11 30  1  0  0  0  0
 11 31  1  0  0  0  0
 12 13  1  0  0  0  0
 12 32  1  0  0  0  0
 12 33  1  0  0  0  0
 13 34  1  0  0  0  0
 13 35  1  0  0  0  0
M  END
> <PUBCHEM_COMPOUND_CID>
9248

> <PUBCHEM_CONFORMER_RMSD>
0.6

> <PUBCHEM_CONFORMER_DIVERSEORDER>
1
26
22
11
21
4
17
24
8
14
28
12
20
13
7
23
29
16
27
6
5
19
10
3
18
15
2
9
25

> <PUBCHEM_MMFF94_PARTIAL_CHARGES>
7
1 -0.3
14 0.1
15 0.1
2 -0.05
3 -0.05
4 0.09
5 0.09

> <PUBCHEM_EFFECTIVE_ROTOR_COUNT>
2.2

> <PUBCHEM_PHARMACOPHORE_FEATURES>
1
1 1 acceptor

> <PUBCHEM_HEAVY_ATOM_COUNT>
13

> <PUBCHEM_ATOM_DEF_STEREO_COUNT>
0

> <PUBCHEM_ATOM_UDEF_STEREO_COUNT>
2

> <PUBCHEM_BOND_DEF_STEREO_COUNT>
0

> <PUBCHEM_BOND_UDEF_STEREO_COUNT>
0

> <PUBCHEM_ISOTOPIC_ATOM_COUNT>
0

> <PUBCHEM_COMPONENT_COUNT>
1

> <PUBCHEM_CACTVS_TAUTO_COUNT>
1

> <PUBCHEM_CONFORMER_ID>
0000242000000001

> <PUBCHEM_MMFF94_ENERGY>
13.7583

> <PUBCHEM_FEATURE_SELFOVERLAP>
5.074

> <PUBCHEM_SHAPE_FINGERPRINT>
11321824 6 18115887324261627975
1420 336 18194119848410049579
14251711 518 18339086007030741939
14251745 187 17470731000736146552
15279307 12 18194384804995436704
15775835 57 18338790131096882871
16945 1 18338239271270613045
19930374 2 14313432354804354378
20201158 50 18193278494402308543
20871998 184 16179321106469634112
22802520 49 17832403320827015870
2334 1 18338516446974530277
23419403 2 16107637066858743833
23590187 152 16534275761964203905
2748010 2 18266459991087066133
2897 32 18412825797860613861
66348 1 17978512266812296819

> <PUBCHEM_SHAPE_MULTIPOLES>
261.66
3.73
3.5
0.86
0.03
0.11
0.05
0.13
-0.29
0.21
0.24
0.04
0
-0.52

> <PUBCHEM_SHAPE_SELFOVERLAP>
501.445

> <PUBCHEM_SHAPE_VOLUME>
159.7

> <PUBCHEM_COORDINATE_TYPE>
2
5
10

$$$$

