10535
  -OEChem-06261204393D

 21 20  0     0  0  0  0  0  0999 V2000
   -0.0930   -1.6722   -1.5245 Br  0  0  0  0  0  0  0  0  0  0  0  0
    1.5008   -0.2656    1.5823 O   0  0  0  0  0  0  0  0  0  0  0  0
    2.2903   -0.0166   -0.5431 N   0  0  0  0  0  0  0  0  0  0  0  0
   -0.1526   -0.1839   -0.2051 C   0  0  0  0  0  0  0  0  0  0  0  0
   -0.5183    1.1030   -0.9694 C   0  0  0  0  0  0  0  0  0  0  0  0
   -1.1659   -0.5813    0.8954 C   0  0  0  0  0  0  0  0  0  0  0  0
    1.2745   -0.1610    0.3762 C   0  0  0  0  0  0  0  0  0  0  0  0
   -0.4988    2.3571   -0.1023 C   0  0  0  0  0  0  0  0  0  0  0  0
   -2.6370   -0.5794    0.4904 C   0  0  0  0  0  0  0  0  0  0  0  0
    0.1857    1.2658   -1.7958 H   0  0  0  0  0  0  0  0  0  0  0  0
   -1.5029    1.0091   -1.4430 H   0  0  0  0  0  0  0  0  0  0  0  0
   -0.9190   -1.5774    1.2875 H   0  0  0  0  0  0  0  0  0  0  0  0
   -1.0605    0.1019    1.7484 H   0  0  0  0  0  0  0  0  0  0  0  0
   -1.2317    2.2964    0.7072 H   0  0  0  0  0  0  0  0  0  0  0  0
   -0.7465    3.2338   -0.7095 H   0  0  0  0  0  0  0  0  0  0  0  0
    0.4891    2.5248    0.3370 H   0  0  0  0  0  0  0  0  0  0  0  0
   -3.2502   -0.9282    1.3282 H   0  0  0  0  0  0  0  0  0  0  0  0
   -2.9823    0.4262    0.2336 H   0  0  0  0  0  0  0  0  0  0  0  0
   -2.8307   -1.2414   -0.3578 H   0  0  0  0  0  0  0  0  0  0  0  0
    3.2608    0.0112   -0.2485 H   0  0  0  0  0  0  0  0  0  0  0  0
    2.1140    0.0487   -1.5401 H   0  0  0  0  0  0  0  0  0  0  0  0
  1  4  1  0  0  0  0
  2  7  2  0  0  0  0
  3  7  1  0  0  0  0
  3 20  1  0  0  0  0
  3 21  1  0  0  0  0
  4  5  1  0  0  0  0
  4  6  1  0  0  0  0
  4  7  1  0  0  0  0
  5  8  1  0  0  0  0
  5 10  1  0  0  0  0
  5 11  1  0  0  0  0
  6  9  1  0  0  0  0
  6 12  1  0  0  0  0
  6 13  1  0  0  0  0
  8 14  1  0  0  0  0
  8 15  1  0  0  0  0
  8 16  1  0  0  0  0
  9 17  1  0  0  0  0
  9 18  1  0  0  0  0
  9 19  1  0  0  0  0
M  END
> <PUBCHEM_COMPOUND_CID>
10535

> <PUBCHEM_CONFORMER_RMSD>
0.6

> <PUBCHEM_CONFORMER_DIVERSEORDER>
1
18
13
5
6
22
8
15
21
16
14
9
19
3
7
17
10
2
12
11
20
4

> <PUBCHEM_MMFF94_PARTIAL_CHARGES>
7
1 -0.23
2 -0.57
20 0.37
21 0.37
3 -0.8
4 0.29
7 0.57

> <PUBCHEM_EFFECTIVE_ROTOR_COUNT>
3

> <PUBCHEM_PHARMACOPHORE_FEATURES>
5
1 1 hydrophobe
1 2 acceptor
1 3 donor
1 8 hydrophobe
1 9 hydrophobe

> <PUBCHEM_HEAVY_ATOM_COUNT>
9

> <PUBCHEM_ATOM_DEF_STEREO_COUNT>
0

> <PUBCHEM_ATOM_UDEF_STEREO_COUNT>
0

> <PUBCHEM_BOND_DEF_STEREO_COUNT>
0

> <PUBCHEM_BOND_UDEF_STEREO_COUNT>
0

> <PUBCHEM_ISOTOPIC_ATOM_COUNT>
0

> <PUBCHEM_COMPONENT_COUNT>
1

> <PUBCHEM_CACTVS_TAUTO_COUNT>
2

> <PUBCHEM_CONFORMER_ID>
0000292700000001

> <PUBCHEM_MMFF94_ENERGY>
17.9958

> <PUBCHEM_FEATURE_SELFOVERLAP>
25.371

> <PUBCHEM_SHAPE_FINGERPRINT>
10219947 1 18262784199557186587
12423570 1 14436369071991327191
137420 1 17690302807378397535
14993402 34 18189889821130088495
16945 1 16702017522222294019
20653091 64 17771603686591414793
21040471 1 17622735631438895300
21922407 69 17059773450493507568
21930827 45 17763171840749457253
23552333 60 16559039293615141360
29004967 10 14045736006688005083
5084963 1 18187925126911024362
5943 1 14421813191496337383

> <PUBCHEM_SHAPE_MULTIPOLES>
180.31
2.44
1.9
1.41
0.36
0.52
-0.13
-0.36
-0.77
0.31
1.01
-0.16
-0.19
0.23

> <PUBCHEM_SHAPE_SELFOVERLAP>
321.873

> <PUBCHEM_SHAPE_VOLUME>
119.8

> <PUBCHEM_COORDINATE_TYPE>
2
5
10

$$$$

