6701
  -OEChem-06261201273D

 29 31  0     0  0  0  0  0  0999 V2000
   -0.5148    2.4468    0.0636 O   0  0  0  0  0  0  0  0  0  0  0  0
   -1.4969   -2.8041   -0.0746 O   0  0  0  0  0  0  0  0  0  0  0  0
    4.9848   -0.6827    0.5806 O   0  0  0  0  0  0  0  0  0  0  0  0
    4.5897    1.2793   -0.4970 O   0  0  0  0  0  0  0  0  0  0  0  0
    2.0522    2.0889    0.0406 N   0  0  0  0  0  0  0  0  0  0  0  0
    0.3988    0.2590   -0.0016 C   0  0  0  0  0  0  0  0  0  0  0  0
    0.1310   -1.1111   -0.0379 C   0  0  0  0  0  0  0  0  0  0  0  0
   -2.1001    0.7466    0.0242 C   0  0  0  0  0  0  0  0  0  0  0  0
   -2.3677   -0.6235   -0.0116 C   0  0  0  0  0  0  0  0  0  0  0  0
   -0.7070    1.2379    0.0303 C   0  0  0  0  0  0  0  0  0  0  0  0
   -1.2619   -1.6024   -0.0438 C   0  0  0  0  0  0  0  0  0  0  0  0
    1.7236    0.7118    0.0046 C   0  0  0  0  0  0  0  0  0  0  0  0
    1.1882   -2.0285   -0.0685 C   0  0  0  0  0  0  0  0  0  0  0  0
    2.7741   -0.2059   -0.0258 C   0  0  0  0  0  0  0  0  0  0  0  0
    2.5069   -1.5731   -0.0625 C   0  0  0  0  0  0  0  0  0  0  0  0
   -3.1572    1.6639    0.0545 C   0  0  0  0  0  0  0  0  0  0  0  0
   -3.6926   -1.0761   -0.0172 C   0  0  0  0  0  0  0  0  0  0  0  0
   -4.4760    1.2086    0.0491 C   0  0  0  0  0  0  0  0  0  0  0  0
   -4.7431   -0.1586    0.0135 C   0  0  0  0  0  0  0  0  0  0  0  0
    4.1681    0.2230   -0.0207 C   0  0  0  0  0  0  0  0  0  0  0  0
    1.0057   -3.0993   -0.1003 H   0  0  0  0  0  0  0  0  0  0  0  0
    3.3023   -2.3129   -0.1016 H   0  0  0  0  0  0  0  0  0  0  0  0
   -2.9784    2.7354    0.0826 H   0  0  0  0  0  0  0  0  0  0  0  0
   -3.9273   -2.1368   -0.0449 H   0  0  0  0  0  0  0  0  0  0  0  0
   -5.2958    1.9209    0.0727 H   0  0  0  0  0  0  0  0  0  0  0  0
   -5.7707   -0.5106    0.0093 H   0  0  0  0  0  0  0  0  0  0  0  0
    3.0150    2.3941    0.0681 H   0  0  0  0  0  0  0  0  0  0  0  0
    1.3244    2.7888    0.0654 H   0  0  0  0  0  0  0  0  0  0  0  0
    5.9204   -0.3877    0.5807 H   0  0  0  0  0  0  0  0  0  0  0  0
  1 10  2  0  0  0  0
  2 11  2  0  0  0  0
  3 20  1  0  0  0  0
  3 29  1  0  0  0  0
  4 20  2  0  0  0  0
  5 12  1  0  0  0  0
  5 27  1  0  0  0  0
  5 28  1  0  0  0  0
  6  7  2  0  0  0  0
  6 10  1  0  0  0  0
  6 12  1  0  0  0  0
  7 11  1  0  0  0  0
  7 13  1  0  0  0  0
  8  9  1  0  0  0  0
  8 10  1  0  0  0  0
  8 16  2  0  0  0  0
  9 11  1  0  0  0  0
  9 17  2  0  0  0  0
 12 14  2  0  0  0  0
 13 15  2  0  0  0  0
 13 21  1  0  0  0  0
 14 15  1  0  0  0  0
 14 20  1  0  0  0  0
 15 22  1  0  0  0  0
 16 18  1  0  0  0  0
 16 23  1  0  0  0  0
 17 19  1  0  0  0  0
 17 24  1  0  0  0  0
 18 19  2  0  0  0  0
 18 25  1  0  0  0  0
 19 26  1  0  0  0  0
M  END
> <PUBCHEM_COMPOUND_CID>
6701

> <PUBCHEM_CONFORMER_RMSD>
0.6

> <PUBCHEM_CONFORMER_DIVERSEORDER>
1

> <PUBCHEM_MMFF94_PARTIAL_CHARGES>
29
1 -0.57
10 0.4
11 0.4
12 0.1
13 -0.15
14 0.09
15 -0.15
16 -0.15
17 -0.15
18 -0.15
19 -0.15
2 -0.57
20 0.63
21 0.15
22 0.15
23 0.15
24 0.15
25 0.15
26 0.15
27 0.4
28 0.4
29 0.5
3 -0.65
4 -0.57
5 -0.9
6 0.09
7 0.09
8 0.09
9 0.09

> <PUBCHEM_EFFECTIVE_ROTOR_COUNT>
1

> <PUBCHEM_PHARMACOPHORE_FEATURES>
10
1 1 acceptor
1 2 acceptor
1 3 acceptor
1 4 acceptor
1 5 cation
1 5 donor
3 3 4 20 anion
6 6 7 12 13 14 15 rings
6 6 7 8 9 10 11 rings
6 8 9 16 17 18 19 rings

> <PUBCHEM_HEAVY_ATOM_COUNT>
20

> <PUBCHEM_ATOM_DEF_STEREO_COUNT>
0

> <PUBCHEM_ATOM_UDEF_STEREO_COUNT>
0

> <PUBCHEM_BOND_DEF_STEREO_COUNT>
0

> <PUBCHEM_BOND_UDEF_STEREO_COUNT>
0

> <PUBCHEM_ISOTOPIC_ATOM_COUNT>
0

> <PUBCHEM_COMPONENT_COUNT>
1

> <PUBCHEM_CACTVS_TAUTO_COUNT>
5

> <PUBCHEM_CONFORMER_ID>
00001A2D00000001

> <PUBCHEM_MMFF94_ENERGY>
79.1698

> <PUBCHEM_FEATURE_SELFOVERLAP>
50.843

> <PUBCHEM_SHAPE_FINGERPRINT>
10062212 137 18411989039531761066
10411042 1 16103891688653849914
10616163 171 18337388232207351055
10967382 1 18410292540265937303
11132069 177 18408042935164690130
11471102 20 18410295838848332511
11578080 2 16879925019062125531
12011746 2 18409448106724746085
12236239 1 17917712392607088200
12403814 3 17703794725578760917
13140716 1 18337958861688411136
13221675 6 18410012147615853423
13380535 76 18409165527957667094
13583140 156 16988850479683522217
138480 1 17689998255326679559
13862211 1 18410299115887527054
14790565 3 18410283731383660337
15196674 1 18410574010942477367
15375358 24 18334293179889125534
15536298 74 18261954158113910862
16945 1 18410005541993062430
17804303 29 18336263457449830713
1813 80 16987437710849150286
19591789 44 18410573942460500899
200 152 18040721363797130213
20510252 161 18188770672943704489
20715895 44 17839753891167011245
21029758 11 18333454227180020697
21267235 1 18410847767926494475
21421861 104 17843406434038540994
2334 1 18049440335927615822
23402539 116 18333740112934916903
23402655 69 18261679267828259405
23463225 33 18411981394753445445
23559900 14 18190180264436856454
2748010 2 18049443634525854639
335352 9 18410575123718698646
34934 24 18410579482730981350
350125 39 18410289203857433969
474 4 17345746379313634524
5104073 3 18411699898038187626
69090 78 18409169917614489255
7364860 26 18191303977925809550
8809292 202 18271242712112717099
9709674 26 18408598162799146543
9981440 41 17264122862279037768

> <PUBCHEM_SHAPE_MULTIPOLES>
383.13
8.74
2.4
0.62
1.9
0.28
0
-1.44
-0.2
-0.29
0.05
0.07
0.01
-0.21

> <PUBCHEM_SHAPE_SELFOVERLAP>
869.927

> <PUBCHEM_SHAPE_VOLUME>
197.9

> <PUBCHEM_COORDINATE_TYPE>
2
5
10

$$$$

