12361
  -OEChem-06261206513D

 16 15  0     0  0  0  0  0  0999 V2000
   -2.8850    1.1945   -0.2470 Cl  0  0  0  0  0  0  0  0  0  0  0  0
   -0.1537   -0.0649    0.2729 O   0  0  0  0  0  0  0  0  0  0  0  0
    3.4461    0.1532   -0.1774 O   0  0  0  0  0  0  0  0  0  0  0  0
    1.1231   -0.4219   -0.2426 C   0  0  0  0  0  0  0  0  0  0  0  0
   -1.1735   -0.9199   -0.2246 C   0  0  0  0  0  0  0  0  0  0  0  0
    2.1666    0.5227    0.3222 C   0  0  0  0  0  0  0  0  0  0  0  0
   -2.5237   -0.4637    0.2966 C   0  0  0  0  0  0  0  0  0  0  0  0
    1.3633   -1.4559    0.0331 H   0  0  0  0  0  0  0  0  0  0  0  0
    1.1205   -0.3617   -1.3377 H   0  0  0  0  0  0  0  0  0  0  0  0
   -0.9827   -1.9452    0.1123 H   0  0  0  0  0  0  0  0  0  0  0  0
   -1.1692   -0.9084   -1.3213 H   0  0  0  0  0  0  0  0  0  0  0  0
    2.1833    0.4919    1.4166 H   0  0  0  0  0  0  0  0  0  0  0  0
    1.9572    1.5559    0.0273 H   0  0  0  0  0  0  0  0  0  0  0  0
   -3.3242   -1.1186   -0.0579 H   0  0  0  0  0  0  0  0  0  0  0  0
   -2.5322   -0.4455    1.3903 H   0  0  0  0  0  0  0  0  0  0  0  0
    3.6280   -0.7531    0.1247 H   0  0  0  0  0  0  0  0  0  0  0  0
  1  7  1  0  0  0  0
  2  4  1  0  0  0  0
  2  5  1  0  0  0  0
  3  6  1  0  0  0  0
  3 16  1  0  0  0  0
  4  6  1  0  0  0  0
  4  8  1  0  0  0  0
  4  9  1  0  0  0  0
  5  7  1  0  0  0  0
  5 10  1  0  0  0  0
  5 11  1  0  0  0  0
  6 12  1  0  0  0  0
  6 13  1  0  0  0  0
  7 14  1  0  0  0  0
  7 15  1  0  0  0  0
M  END
> <PUBCHEM_COMPOUND_CID>
12361

> <PUBCHEM_CONFORMER_RMSD>
0.6

> <PUBCHEM_CONFORMER_DIVERSEORDER>
3
27
13
25
29
14
5
7
16
2
26
30
19
21
8
24
10
22
1
18
11
9
15
6
28
20
23
17
4
12

> <PUBCHEM_MMFF94_PARTIAL_CHARGES>
8
1 -0.29
16 0.4
2 -0.56
3 -0.68
4 0.28
5 0.28
6 0.28
7 0.29

> <PUBCHEM_EFFECTIVE_ROTOR_COUNT>
4

> <PUBCHEM_PHARMACOPHORE_FEATURES>
3
1 2 acceptor
1 3 acceptor
1 3 donor

> <PUBCHEM_HEAVY_ATOM_COUNT>
7

> <PUBCHEM_ATOM_DEF_STEREO_COUNT>
0

> <PUBCHEM_ATOM_UDEF_STEREO_COUNT>
0

> <PUBCHEM_BOND_DEF_STEREO_COUNT>
0

> <PUBCHEM_BOND_UDEF_STEREO_COUNT>
0

> <PUBCHEM_ISOTOPIC_ATOM_COUNT>
0

> <PUBCHEM_COMPONENT_COUNT>
1

> <PUBCHEM_CACTVS_TAUTO_COUNT>
1

> <PUBCHEM_CONFORMER_ID>
0000304900000003

> <PUBCHEM_MMFF94_ENERGY>
6.7511

> <PUBCHEM_FEATURE_SELFOVERLAP>
15.223

> <PUBCHEM_SHAPE_FINGERPRINT>
12932764 1 18187087221714835050
14325111 11 18410856559740159290
14390081 3 18408326592227542673
20651381 32 17894910771524716990
29004967 10 12823301207961836382
5460574 1 9583527511624850394

> <PUBCHEM_SHAPE_MULTIPOLES>
134.19
5.36
1.07
0.66
1.9
0.13
0
1.49
-0.12
-0.73
-0.06
-0.07
0
0.21

> <PUBCHEM_SHAPE_SELFOVERLAP>
225.221

> <PUBCHEM_SHAPE_VOLUME>
92

> <PUBCHEM_COORDINATE_TYPE>
2
5
10

$$$$

