583238
  -OEChem-06241222453D

 39 39  0     1  0  0  0  0  0999 V2000
   -0.2879   -2.5641    0.6253 O   0  0  0  0  0  0  0  0  0  0  0  0
   -5.2709   -0.6822   -0.6426 O   0  0  0  0  0  0  0  0  0  0  0  0
   -2.7317    2.5219    0.4271 O   0  0  0  0  0  0  0  0  0  0  0  0
   -3.4945    1.4882   -1.4408 O   0  0  0  0  0  0  0  0  0  0  0  0
   -2.5276   -0.8063    0.1588 N   0  0  0  0  0  0  0  0  0  0  0  0
   -3.4219    0.2434    0.6565 C   0  0  2  0  0  0  0  0  0  0  0  0
   -1.1452   -0.3591    0.1927 C   0  0  0  0  0  0  0  0  0  0  0  0
   -0.1558   -1.4499   -0.2610 C   0  0  2  0  0  0  0  0  0  0  0  0
   -4.8737   -0.2605    0.6609 C   0  0  1  0  0  0  0  0  0  0  0  0
   -0.4262   -1.9262   -1.6917 C   0  0  0  0  0  0  0  0  0  0  0  0
   -5.8700    0.7907    1.1339 C   0  0  0  0  0  0  0  0  0  0  0  0
   -3.2271    1.4508   -0.2463 C   0  0  0  0  0  0  0  0  0  0  0  0
    1.2226   -0.9276   -0.1613 C   0  0  0  0  0  0  0  0  0  0  0  0
    2.3435   -0.5029   -0.0799 C   0  0  0  0  0  0  0  0  0  0  0  0
    3.6775    0.0037    0.0172 C   0  0  0  0  0  0  0  0  0  0  0  0
    4.6597   -0.7415    0.6681 C   0  0  0  0  0  0  0  0  0  0  0  0
    3.9942    1.2421   -0.5397 C   0  0  0  0  0  0  0  0  0  0  0  0
    5.9608   -0.2477    0.7625 C   0  0  0  0  0  0  0  0  0  0  0  0
    5.2954    1.7360   -0.4455 C   0  0  0  0  0  0  0  0  0  0  0  0
    6.2786    0.9911    0.2057 C   0  0  0  0  0  0  0  0  0  0  0  0
   -3.1482    0.5125    1.6850 H   0  0  0  0  0  0  0  0  0  0  0  0
   -0.9874    0.5133   -0.4532 H   0  0  0  0  0  0  0  0  0  0  0  0
   -0.8923   -0.0558    1.2186 H   0  0  0  0  0  0  0  0  0  0  0  0
   -4.9555   -1.1327    1.3214 H   0  0  0  0  0  0  0  0  0  0  0  0
   -2.6318   -1.6449    0.7294 H   0  0  0  0  0  0  0  0  0  0  0  0
    0.3048   -2.6867   -1.9929 H   0  0  0  0  0  0  0  0  0  0  0  0
   -0.3717   -1.1015   -2.4109 H   0  0  0  0  0  0  0  0  0  0  0  0
   -1.4100   -2.4007   -1.7762 H   0  0  0  0  0  0  0  0  0  0  0  0
   -5.6147    1.1595    2.1318 H   0  0  0  0  0  0  0  0  0  0  0  0
   -6.8793    0.3659    1.1686 H   0  0  0  0  0  0  0  0  0  0  0  0
   -5.9171    1.6396    0.4435 H   0  0  0  0  0  0  0  0  0  0  0  0
   -0.1554   -2.2470    1.5353 H   0  0  0  0  0  0  0  0  0  0  0  0
   -4.6249   -1.3443   -0.9425 H   0  0  0  0  0  0  0  0  0  0  0  0
   -2.6162    3.3001   -0.1588 H   0  0  0  0  0  0  0  0  0  0  0  0
    4.4275   -1.7089    1.1071 H   0  0  0  0  0  0  0  0  0  0  0  0
    3.2386    1.8344   -1.0504 H   0  0  0  0  0  0  0  0  0  0  0  0
    6.7265   -0.8275    1.2694 H   0  0  0  0  0  0  0  0  0  0  0  0
    5.5430    2.7005   -0.8790 H   0  0  0  0  0  0  0  0  0  0  0  0
    7.2917    1.3756    0.2791 H   0  0  0  0  0  0  0  0  0  0  0  0
  1  8  1  0  0  0  0
  1 32  1  0  0  0  0
  2  9  1  0  0  0  0
  2 33  1  0  0  0  0
  3 12  1  0  0  0  0
  3 34  1  0  0  0  0
  4 12  2  0  0  0  0
  5  6  1  0  0  0  0
  5  7  1  0  0  0  0
  5 25  1  0  0  0  0
  6  9  1  0  0  0  0
  6 12  1  0  0  0  0
  6 21  1  0  0  0  0
  7  8  1  0  0  0  0
  7 22  1  0  0  0  0
  7 23  1  0  0  0  0
  8 10  1  0  0  0  0
  8 13  1  0  0  0  0
  9 11  1  0  0  0  0
  9 24  1  0  0  0  0
 10 26  1  0  0  0  0
 10 27  1  0  0  0  0
 10 28  1  0  0  0  0
 11 29  1  0  0  0  0
 11 30  1  0  0  0  0
 11 31  1  0  0  0  0
 13 14  3  0  0  0  0
 14 15  1  0  0  0  0
 15 16  2  0  0  0  0
 15 17  1  0  0  0  0
 16 18  1  0  0  0  0
 16 35  1  0  0  0  0
 17 19  2  0  0  0  0
 17 36  1  0  0  0  0
 18 20  2  0  0  0  0
 18 37  1  0  0  0  0
 19 20  1  0  0  0  0
 19 38  1  0  0  0  0
 20 39  1  0  0  0  0
M  END
> <PUBCHEM_COMPOUND_CID>
583238

> <PUBCHEM_CONFORMER_RMSD>
0.8

> <PUBCHEM_CONFORMER_DIVERSEORDER>
3
5
50
11
34
44
47
43
53
39
18
38
45
21
23
51
15
31
41
46
14
40
32
28
35
12
48
49
7
52
13
6
4
22
33
37
36
42
20
19
2
27
26
16
30
8
1
25
10
29
24
17
9

> <PUBCHEM_MMFF94_PARTIAL_CHARGES>
27
1 -0.68
12 0.66
13 -0.2
14 -0.07
15 0.07
16 -0.15
17 -0.15
18 -0.15
19 -0.15
2 -0.68
20 -0.15
25 0.36
3 -0.65
32 0.4
33 0.4
34 0.5
35 0.15
36 0.15
37 0.15
38 0.15
39 0.15
4 -0.57
5 -0.9
6 0.33
7 0.27
8 0.48
9 0.28

> <PUBCHEM_EFFECTIVE_ROTOR_COUNT>
5

> <PUBCHEM_PHARMACOPHORE_FEATURES>
10
1 1 acceptor
1 1 donor
1 2 acceptor
1 2 donor
1 3 acceptor
1 4 acceptor
1 5 cation
1 5 donor
3 3 4 12 anion
6 15 16 17 18 19 20 rings

> <PUBCHEM_HEAVY_ATOM_COUNT>
20

> <PUBCHEM_ATOM_DEF_STEREO_COUNT>
0

> <PUBCHEM_ATOM_UDEF_STEREO_COUNT>
3

> <PUBCHEM_BOND_DEF_STEREO_COUNT>
0

> <PUBCHEM_BOND_UDEF_STEREO_COUNT>
0

> <PUBCHEM_ISOTOPIC_ATOM_COUNT>
0

> <PUBCHEM_COMPONENT_COUNT>
1

> <PUBCHEM_CACTVS_TAUTO_COUNT>
1

> <PUBCHEM_CONFORMER_ID>
0008E64600000003

> <PUBCHEM_MMFF94_ENERGY>
34.6601

> <PUBCHEM_FEATURE_SELFOVERLAP>
50.81

> <PUBCHEM_SHAPE_FINGERPRINT>
10354089 29 18059855056949366528
10670039 82 18337655521556111852
10803635 8 7132445579213138825
11315181 36 12463569582319423383
12107183 9 17695638728844401146
12507557 5 17418373588919952509
12516196 113 12319733652922116910
12596602 18 17203608147003059520
12788726 201 7997426982885762166
12892183 10 17131835407943875851
12916748 109 18410005555167952290
13103583 49 12966837009313371757
13167372 99 18410290354476048936
13533116 47 17632300116202451506
13685833 64 10879983662642828153
13785724 45 17764314238391601818
13914758 101 15698010652015391253
14123255 352 18341899614468117980
14251752 14 5833717846173586354
14251764 18 18202286897181601512
14341114 176 17989481918371338344
15188451 53 15625929882175808979
15537594 2 7565343136843417700
15880784 105 14548727374822591372
18006028 8 12535348978224552407
18222031 100 12967125012904057354
19489759 90 15626227926993987069
200 152 8718835292770378398
20281389 69 18412829071517464416
20645477 56 17967250862857895814
20645477 70 16733250340564695070
21315764 268 18272093773210751356
21857420 4 5597650273276268232
2215653 11 8862940542159795865
22224240 67 18412258437783167755
22950370 63 8790881891343693514
23035841 295 8718831989750389772
23198884 109 16081080481035376531
23272321 79 18410291393667879369
23402539 116 18343023272760916495
2767999 5 18260268542553710584
2838139 119 18187090563494939756
314173 85 13182739281686457062
351380 180 18341894090834155153
351380 3 10591765363749248984
3545911 37 18408600353981020850
4325135 7 18186802461742199471
465052 167 11600001055378373704
474229 33 18410292501933322823
4921388 177 14924236988524801101
5104073 3 17987230226264281905
5283173 99 6627482778140775714
54446538 1 18343022194565804664
9981440 41 18201714085482538147

> <PUBCHEM_SHAPE_MULTIPOLES>
383.13
15.69
2.08
1.07
5.74
0.04
-0.24
6.81
3.17
-0.51
-0.33
-0.57
-0.13
-0.61

> <PUBCHEM_SHAPE_SELFOVERLAP>
780.216

> <PUBCHEM_SHAPE_VOLUME>
221.9

> <PUBCHEM_COORDINATE_TYPE>
2
5
10

$$$$

