854049
  -OEChem-06241222473D

 27 28  0     1  0  0  0  0  0999 V2000
   -1.1695    0.8316    0.2983 O   0  0  0  0  0  0  0  0  0  0  0  0
    0.0555   -0.5830   -1.1135 O   0  0  0  0  0  0  0  0  0  0  0  0
    1.8096   -2.3022    0.3740 O   0  0  0  0  0  0  0  0  0  0  0  0
    1.2081    2.0461   -1.0315 O   0  0  0  0  0  0  0  0  0  0  0  0
    1.2149   -0.1943   -0.4081 N   0  0  0  0  0  0  0  0  0  0  0  0
   -2.3376   -0.9059   -0.9423 C   0  0  0  0  0  0  0  0  0  0  0  0
   -3.5443   -0.7636   -0.0231 C   0  0  0  0  0  0  0  0  0  0  0  0
   -1.0534   -0.4937   -0.2232 C   0  0  2  0  0  0  0  0  0  0  0  0
   -3.5699    0.6214    0.6144 C   0  0  0  0  0  0  0  0  0  0  0  0
   -2.2254    0.9471    1.2521 C   0  0  0  0  0  0  0  0  0  0  0  0
    3.0859   -0.3184    0.9164 C   0  0  0  0  0  0  0  0  0  0  0  0
    2.8861    1.1252    0.4499 C   0  0  0  0  0  0  0  0  0  0  0  0
    1.9709   -1.0960    0.2710 C   0  0  0  0  0  0  0  0  0  0  0  0
    1.6691    1.0858   -0.4343 C   0  0  0  0  0  0  0  0  0  0  0  0
   -2.2534   -1.9322   -1.3170 H   0  0  0  0  0  0  0  0  0  0  0  0
   -2.4778   -0.2656   -1.8229 H   0  0  0  0  0  0  0  0  0  0  0  0
   -3.4956   -1.5264    0.7636 H   0  0  0  0  0  0  0  0  0  0  0  0
   -4.4688   -0.9377   -0.5844 H   0  0  0  0  0  0  0  0  0  0  0  0
   -0.8788   -1.1880    0.6107 H   0  0  0  0  0  0  0  0  0  0  0  0
   -3.7850    1.3614   -0.1663 H   0  0  0  0  0  0  0  0  0  0  0  0
   -4.3701    0.6830    1.3592 H   0  0  0  0  0  0  0  0  0  0  0  0
   -2.2287    1.9774    1.6217 H   0  0  0  0  0  0  0  0  0  0  0  0
   -2.0191    0.2905    2.1055 H   0  0  0  0  0  0  0  0  0  0  0  0
    3.0115   -0.3981    2.0049 H   0  0  0  0  0  0  0  0  0  0  0  0
    4.0517   -0.7119    0.5866 H   0  0  0  0  0  0  0  0  0  0  0  0
    3.7484    1.4806   -0.1216 H   0  0  0  0  0  0  0  0  0  0  0  0
    2.7076    1.7951    1.2960 H   0  0  0  0  0  0  0  0  0  0  0  0
  1  8  1  0  0  0  0
  1 10  1  0  0  0  0
  2  5  1  0  0  0  0
  2  8  1  0  0  0  0
  3 13  2  0  0  0  0
  4 14  2  0  0  0  0
  5 13  1  0  0  0  0
  5 14  1  0  0  0  0
  6  7  1  0  0  0  0
  6  8  1  0  0  0  0
  6 15  1  0  0  0  0
  6 16  1  0  0  0  0
  7  9  1  0  0  0  0
  7 17  1  0  0  0  0
  7 18  1  0  0  0  0
  8 19  1  0  0  0  0
  9 10  1  0  0  0  0
  9 20  1  0  0  0  0
  9 21  1  0  0  0  0
 10 22  1  0  0  0  0
 10 23  1  0  0  0  0
 11 12  1  0  0  0  0
 11 13  1  0  0  0  0
 11 24  1  0  0  0  0
 11 25  1  0  0  0  0
 12 14  1  0  0  0  0
 12 26  1  0  0  0  0
 12 27  1  0  0  0  0
M  END
> <PUBCHEM_COMPOUND_CID>
854049

> <PUBCHEM_CONFORMER_RMSD>
0.6

> <PUBCHEM_CONFORMER_DIVERSEORDER>
1
7
5
8
3
2
4
6

> <PUBCHEM_MMFF94_PARTIAL_CHARGES>
11
1 -0.56
10 0.28
11 0.06
12 0.06
13 0.57
14 0.57
2 -0.32
3 -0.57
4 -0.57
5 -0.08
8 0.56

> <PUBCHEM_EFFECTIVE_ROTOR_COUNT>
3.8

> <PUBCHEM_PHARMACOPHORE_FEATURES>
5
1 1 acceptor
1 3 acceptor
1 4 acceptor
5 5 11 12 13 14 rings
6 1 6 7 8 9 10 rings

> <PUBCHEM_HEAVY_ATOM_COUNT>
14

> <PUBCHEM_ATOM_DEF_STEREO_COUNT>
1

> <PUBCHEM_ATOM_UDEF_STEREO_COUNT>
0

> <PUBCHEM_BOND_DEF_STEREO_COUNT>
0

> <PUBCHEM_BOND_UDEF_STEREO_COUNT>
0

> <PUBCHEM_ISOTOPIC_ATOM_COUNT>
0

> <PUBCHEM_COMPONENT_COUNT>
1

> <PUBCHEM_CACTVS_TAUTO_COUNT>
3

> <PUBCHEM_CONFORMER_ID>
000D082100000001

> <PUBCHEM_MMFF94_ENERGY>
24.1435

> <PUBCHEM_FEATURE_SELFOVERLAP>
25.373

> <PUBCHEM_SHAPE_FINGERPRINT>
10219947 1 18202290177961641548
11471102 22 17917720088808830480
12202030 40 16415184681305308787
12251169 10 18334296512804683795
12696612 119 18411412929729810780
12932764 1 18341323483265164589
13538477 17 18114469942030519303
13764800 53 16732968843727921843
14144814 61 18411419514088664259
15669948 3 17603592885286721343
15775835 57 18040995120237718272
16945 1 18272369758743821844
20279233 1 16200437948693114219
20559304 39 18335134289072739409
20871998 22 18194967580982165502
22445834 79 18336830878538112259
22802520 49 14058095677020050872
23557571 272 16009029424127479805
7364860 26 17895469332053483278
77492 1 18334017155215123631
81228 2 16557357148167386397

> <PUBCHEM_SHAPE_MULTIPOLES>
259.66
5.88
1.71
1.06
2.44
0.16
-0.02
-0.14
1.39
-0.77
-0.04
0.06
-0.16
-0.88

> <PUBCHEM_SHAPE_SELFOVERLAP>
535.321

> <PUBCHEM_SHAPE_VOLUME>
149.1

> <PUBCHEM_COORDINATE_TYPE>
2
5
10

$$$$

