7847039
  -OEChem-06241222482D

 46 48  0     1  0  0  0  0  0999 V2000
   15.2619   -1.7990    0.0000 Cl  0  0  0  0  0  0  0  0  0  0  0  0
    4.6783    2.4698    0.0000 S   0  0  0  0  0  0  0  0  0  0  0  0
    8.2619   -0.0670    0.0000 O   0  0  0  0  0  0  0  0  0  0  0  0
    9.2619   -1.7990    0.0000 O   0  0  0  0  0  0  0  0  0  0  0  0
    8.2619    1.6651    0.0000 O   0  0  0  0  0  0  0  0  0  0  0  0
   10.7619   -0.9330    0.0000 N   0  0  0  0  0  0  0  0  0  0  0  0
    4.6783    0.8603    0.0000 N   0  0  0  0  0  0  0  0  0  0  0  0
   11.2619   -1.7990    0.0000 C   0  0  1  0  0  0  0  0  0  0  0  0
   12.2619   -1.7990    0.0000 C   0  0  0  0  0  0  0  0  0  0  0  0
   10.7619   -2.6651    0.0000 C   0  0  0  0  0  0  0  0  0  0  0  0
    6.2619    1.6651    0.0000 C   0  0  0  0  0  0  0  0  0  0  0  0
    6.7619    0.7990    0.0000 C   0  0  0  0  0  0  0  0  0  0  0  0
    5.2619    1.6651    0.0000 C   0  0  0  0  0  0  0  0  0  0  0  0
   12.7619   -2.6651    0.0000 C   0  0  0  0  0  0  0  0  0  0  0  0
   12.7619   -0.9330    0.0000 C   0  0  0  0  0  0  0  0  0  0  0  0
    9.7619   -0.9330    0.0000 C   0  0  0  0  0  0  0  0  0  0  0  0
    3.7320    2.1651    0.0000 C   0  0  0  0  0  0  0  0  0  0  0  0
    3.7320    1.1651    0.0000 C   0  0  0  0  0  0  0  0  0  0  0  0
    9.2619   -0.0670    0.0000 C   0  0  0  0  0  0  0  0  0  0  0  0
    7.7619    0.7990    0.0000 C   0  0  0  0  0  0  0  0  0  0  0  0
   13.7619   -2.6651    0.0000 C   0  0  0  0  0  0  0  0  0  0  0  0
   13.7619   -0.9330    0.0000 C   0  0  0  0  0  0  0  0  0  0  0  0
   14.2619   -1.7990    0.0000 C   0  0  0  0  0  0  0  0  0  0  0  0
    2.8660    2.6651    0.0000 C   0  0  0  0  0  0  0  0  0  0  0  0
    2.8660    0.6651    0.0000 C   0  0  0  0  0  0  0  0  0  0  0  0
    2.0000    2.1651    0.0000 C   0  0  0  0  0  0  0  0  0  0  0  0
    2.0000    1.1651    0.0000 C   0  0  0  0  0  0  0  0  0  0  0  0
   10.6419   -1.7990    0.0000 H   0  0  0  0  0  0  0  0  0  0  0  0
   11.0719   -0.3961    0.0000 H   0  0  0  0  0  0  0  0  0  0  0  0
   10.2249   -2.3551    0.0000 H   0  0  0  0  0  0  0  0  0  0  0  0
   10.4519   -3.2020    0.0000 H   0  0  0  0  0  0  0  0  0  0  0  0
   11.2988   -2.9751    0.0000 H   0  0  0  0  0  0  0  0  0  0  0  0
    6.8445    1.8771    0.0000 H   0  0  0  0  0  0  0  0  0  0  0  0
    6.1542    2.2756    0.0000 H   0  0  0  0  0  0  0  0  0  0  0  0
    6.1793    0.5870    0.0000 H   0  0  0  0  0  0  0  0  0  0  0  0
    6.8695    0.1885    0.0000 H   0  0  0  0  0  0  0  0  0  0  0  0
   12.4519   -3.2020    0.0000 H   0  0  0  0  0  0  0  0  0  0  0  0
   12.4519   -0.3961    0.0000 H   0  0  0  0  0  0  0  0  0  0  0  0
    9.8445    0.1451    0.0000 H   0  0  0  0  0  0  0  0  0  0  0  0
    9.1542    0.5436    0.0000 H   0  0  0  0  0  0  0  0  0  0  0  0
   14.0719   -3.2020    0.0000 H   0  0  0  0  0  0  0  0  0  0  0  0
   14.0719   -0.3961    0.0000 H   0  0  0  0  0  0  0  0  0  0  0  0
    2.8660    3.2851    0.0000 H   0  0  0  0  0  0  0  0  0  0  0  0
    2.8660    0.0451    0.0000 H   0  0  0  0  0  0  0  0  0  0  0  0
    1.4631    2.4751    0.0000 H   0  0  0  0  0  0  0  0  0  0  0  0
    1.4631    0.8551    0.0000 H   0  0  0  0  0  0  0  0  0  0  0  0
  1 23  1  0  0  0  0
  2 13  1  0  0  0  0
  2 17  1  0  0  0  0
  3 19  1  0  0  0  0
  3 20  1  0  0  0  0
  4 16  2  0  0  0  0
  5 20  2  0  0  0  0
  8  6  1  1  0  0  0
  6 16  1  0  0  0  0
  6 29  1  0  0  0  0
  7 13  2  0  0  0  0
  7 18  1  0  0  0  0
  8  9  1  0  0  0  0
  8 10  1  0  0  0  0
  8 28  1  0  0  0  0
  9 14  2  0  0  0  0
  9 15  1  0  0  0  0
 10 30  1  0  0  0  0
 10 31  1  0  0  0  0
 10 32  1  0  0  0  0
 11 12  1  0  0  0  0
 11 13  1  0  0  0  0
 11 33  1  0  0  0  0
 11 34  1  0  0  0  0
 12 20  1  0  0  0  0
 12 35  1  0  0  0  0
 12 36  1  0  0  0  0
 14 21  1  0  0  0  0
 14 37  1  0  0  0  0
 15 22  2  0  0  0  0
 15 38  1  0  0  0  0
 16 19  1  0  0  0  0
 17 18  1  0  0  0  0
 17 24  2  0  0  0  0
 18 25  2  0  0  0  0
 19 39  1  0  0  0  0
 19 40  1  0  0  0  0
 21 23  2  0  0  0  0
 21 41  1  0  0  0  0
 22 23  1  0  0  0  0
 22 42  1  0  0  0  0
 24 26  1  0  0  0  0
 24 43  1  0  0  0  0
 25 27  1  0  0  0  0
 25 44  1  0  0  0  0
 26 27  2  0  0  0  0
 26 45  1  0  0  0  0
 27 46  1  0  0  0  0
M  END
> <PUBCHEM_COMPOUND_CID>
7847039

> <PUBCHEM_COMPOUND_CANONICALIZED>
1

> <PUBCHEM_CACTVS_COMPLEXITY>
514

> <PUBCHEM_CACTVS_HBOND_ACCEPTOR>
5

> <PUBCHEM_CACTVS_HBOND_DONOR>
1

> <PUBCHEM_CACTVS_ROTATABLE_BOND>
8

> <PUBCHEM_CACTVS_SUBSKEYS>
AAADceB7MABEAAAAAAAAAAAAAAAAAWAAAAAwYAAAAAAAAFgB9AAAHgYQAAAADCrh3iYyybLIFAisAyXyXAKD8KBhDzhImL14ZpgKILLhk5WHIAhklgD4yAc0gIAOBAAAAAAAAQAIAAAAAAACAAAAAAAAAA==

> <PUBCHEM_IUPAC_OPENEYE_NAME>
[2-[[(1R)-1-(4-chlorophenyl)ethyl]amino]-2-oxo-ethyl] 3-(1,3-benzothiazol-2-yl)propanoate

> <PUBCHEM_IUPAC_CAS_NAME>
3-(1,3-benzothiazol-2-yl)propanoic acid [2-[[(1R)-1-(4-chlorophenyl)ethyl]amino]-2-oxoethyl] ester

> <PUBCHEM_IUPAC_NAME>
[2-[[(1R)-1-(4-chlorophenyl)ethyl]amino]-2-oxoethyl] 3-(1,3-benzothiazol-2-yl)propanoate

> <PUBCHEM_IUPAC_SYSTEMATIC_NAME>
[2-[[(1R)-1-(4-chlorophenyl)ethyl]amino]-2-oxidanylidene-ethyl] 3-(1,3-benzothiazol-2-yl)propanoate

> <PUBCHEM_IUPAC_TRADITIONAL_NAME>
3-(1,3-benzothiazol-2-yl)propionic acid [2-[[(1R)-1-(4-chlorophenyl)ethyl]amino]-2-keto-ethyl] ester

> <PUBCHEM_IUPAC_INCHI>
InChI=1S/C20H19ClN2O3S/c1-13(14-6-8-15(21)9-7-14)22-18(24)12-26-20(25)11-10-19-23-16-4-2-3-5-17(16)27-19/h2-9,13H,10-12H2,1H3,(H,22,24)/t13-/m1/s1

> <PUBCHEM_IUPAC_INCHIKEY>
FFVOONXYZARMOB-CYBMUJFWSA-N

> <PUBCHEM_XLOGP3_AA>
4.4

> <PUBCHEM_EXACT_MASS>
402.080491

> <PUBCHEM_MOLECULAR_FORMULA>
C20H19ClN2O3S

> <PUBCHEM_MOLECULAR_WEIGHT>
402.89446

> <PUBCHEM_OPENEYE_CAN_SMILES>
CC(C1=CC=C(C=C1)Cl)NC(=O)COC(=O)CCC2=NC3=CC=CC=C3S2

> <PUBCHEM_OPENEYE_ISO_SMILES>
C[C@H](C1=CC=C(C=C1)Cl)NC(=O)COC(=O)CCC2=NC3=CC=CC=C3S2

> <PUBCHEM_CACTVS_TPSA>
96.5

> <PUBCHEM_MONOISOTOPIC_WEIGHT>
402.080491

> <PUBCHEM_TOTAL_CHARGE>
0

> <PUBCHEM_HEAVY_ATOM_COUNT>
27

> <PUBCHEM_ATOM_DEF_STEREO_COUNT>
1

> <PUBCHEM_ATOM_UDEF_STEREO_COUNT>
0

> <PUBCHEM_BOND_DEF_STEREO_COUNT>
0

> <PUBCHEM_BOND_UDEF_STEREO_COUNT>
0

> <PUBCHEM_ISOTOPIC_ATOM_COUNT>
0

> <PUBCHEM_COMPONENT_COUNT>
1

> <PUBCHEM_CACTVS_TAUTO_COUNT>
4

> <PUBCHEM_COORDINATE_TYPE>
1
5
255

> <PUBCHEM_BONDANNOTATIONS>
14  21  8
15  22  8
17  18  8
17  24  8
18  25  8
2  13  8
2  17  8
21  23  8
22  23  8
24  26  8
25  27  8
26  27  8
8  6  5
7  13  8
7  18  8
9  14  8
9  15  8

$$$$

