586308
  -OEChem-06241222463D

 32 34  0     0  0  0  0  0  0999 V2000
    6.9422   -0.3465   -0.8184 Cl  0  0  0  0  0  0  0  0  0  0  0  0
    1.0234    0.4059    1.1824 S   0  0  0  0  0  0  0  0  0  0  0  0
   -3.7329    3.3197   -0.0822 F   0  0  0  0  0  0  0  0  0  0  0  0
   -1.5783   -1.7369   -0.1554 O   0  0  0  0  0  0  0  0  0  0  0  0
   -3.7779   -2.6766   -0.3618 O   0  0  0  0  0  0  0  0  0  0  0  0
   -2.1631   -0.4965   -0.1321 C   0  0  0  0  0  0  0  0  0  0  0  0
   -3.5461   -0.3184   -0.0067 C   0  0  0  0  0  0  0  0  0  0  0  0
   -1.3174    0.6057   -0.2640 C   0  0  0  0  0  0  0  0  0  0  0  0
   -4.4400   -1.5131    0.1311 C   0  0  0  0  0  0  0  0  0  0  0  0
    0.1582    0.4334   -0.4164 C   0  0  0  0  0  0  0  0  0  0  0  0
   -4.0711    0.9779    0.0211 C   0  0  0  0  0  0  0  0  0  0  0  0
   -1.8500    1.8941   -0.2476 C   0  0  0  0  0  0  0  0  0  0  0  0
   -3.2243    2.0804   -0.1018 C   0  0  0  0  0  0  0  0  0  0  0  0
   -2.4783   -2.7878    0.2141 C   0  0  0  0  0  0  0  0  0  0  0  0
    2.6843    0.1951    0.6206 C   0  0  0  0  0  0  0  0  0  0  0  0
    3.4906    1.3089    0.3413 C   0  0  0  0  0  0  0  0  0  0  0  0
    3.2211   -1.0897    0.4462 C   0  0  0  0  0  0  0  0  0  0  0  0
    4.8027    1.1419   -0.1022 C   0  0  0  0  0  0  0  0  0  0  0  0
    4.5331   -1.2566    0.0029 C   0  0  0  0  0  0  0  0  0  0  0  0
    5.3238   -0.1408   -0.2713 C   0  0  0  0  0  0  0  0  0  0  0  0
   -4.7156   -1.6677    1.1805 H   0  0  0  0  0  0  0  0  0  0  0  0
   -5.3540   -1.3827   -0.4569 H   0  0  0  0  0  0  0  0  0  0  0  0
    0.3881   -0.4819   -0.9741 H   0  0  0  0  0  0  0  0  0  0  0  0
    0.5637    1.2548   -1.0202 H   0  0  0  0  0  0  0  0  0  0  0  0
   -5.1404    1.1361    0.1333 H   0  0  0  0  0  0  0  0  0  0  0  0
   -1.2061    2.7645   -0.3439 H   0  0  0  0  0  0  0  0  0  0  0  0
   -2.0419   -3.7259   -0.1423 H   0  0  0  0  0  0  0  0  0  0  0  0
   -2.5444   -2.8530    1.3081 H   0  0  0  0  0  0  0  0  0  0  0  0
    3.1040    2.3180    0.4659 H   0  0  0  0  0  0  0  0  0  0  0  0
    2.6216   -1.9735    0.6535 H   0  0  0  0  0  0  0  0  0  0  0  0
    5.4073    2.0204   -0.3121 H   0  0  0  0  0  0  0  0  0  0  0  0
    4.9260   -2.2620   -0.1246 H   0  0  0  0  0  0  0  0  0  0  0  0
  1 20  1  0  0  0  0
  2 10  1  0  0  0  0
  2 15  1  0  0  0  0
  3 13  1  0  0  0  0
  4  6  1  0  0  0  0
  4 14  1  0  0  0  0
  5  9  1  0  0  0  0
  5 14  1  0  0  0  0
  6  7  2  0  0  0  0
  6  8  1  0  0  0  0
  7  9  1  0  0  0  0
  7 11  1  0  0  0  0
  8 10  1  0  0  0  0
  8 12  2  0  0  0  0
  9 21  1  0  0  0  0
  9 22  1  0  0  0  0
 10 23  1  0  0  0  0
 10 24  1  0  0  0  0
 11 13  2  0  0  0  0
 11 25  1  0  0  0  0
 12 13  1  0  0  0  0
 12 26  1  0  0  0  0
 14 27  1  0  0  0  0
 14 28  1  0  0  0  0
 15 16  2  0  0  0  0
 15 17  1  0  0  0  0
 16 18  1  0  0  0  0
 16 29  1  0  0  0  0
 17 19  2  0  0  0  0
 17 30  1  0  0  0  0
 18 20  2  0  0  0  0
 18 31  1  0  0  0  0
 19 20  1  0  0  0  0
 19 32  1  0  0  0  0
M  END
> <PUBCHEM_COMPOUND_CID>
586308

> <PUBCHEM_CONFORMER_RMSD>
0.6

> <PUBCHEM_CONFORMER_DIVERSEORDER>
1
8
3
11
7
10
4
12
13
5
6
2
9

> <PUBCHEM_MMFF94_PARTIAL_CHARGES>
26
1 -0.18
10 0.37
11 -0.15
12 -0.15
13 0.19
14 0.56
15 0.1
16 -0.15
17 -0.15
18 -0.15
19 -0.15
2 -0.33
20 0.18
25 0.15
26 0.15
29 0.15
3 -0.19
30 0.15
31 0.15
32 0.15
4 -0.36
5 -0.56
6 0.08
7 -0.14
8 -0.14
9 0.42

> <PUBCHEM_EFFECTIVE_ROTOR_COUNT>
3.8

> <PUBCHEM_PHARMACOPHORE_FEATURES>
5
1 4 acceptor
1 5 acceptor
6 15 16 17 18 19 20 rings
6 4 5 6 7 9 14 rings
6 6 7 8 11 12 13 rings

> <PUBCHEM_HEAVY_ATOM_COUNT>
20

> <PUBCHEM_ATOM_DEF_STEREO_COUNT>
0

> <PUBCHEM_ATOM_UDEF_STEREO_COUNT>
0

> <PUBCHEM_BOND_DEF_STEREO_COUNT>
0

> <PUBCHEM_BOND_UDEF_STEREO_COUNT>
0

> <PUBCHEM_ISOTOPIC_ATOM_COUNT>
0

> <PUBCHEM_COMPONENT_COUNT>
1

> <PUBCHEM_CACTVS_TAUTO_COUNT>
1

> <PUBCHEM_CONFORMER_ID>
0008F24400000001

> <PUBCHEM_MMFF94_ENERGY>
52.9091

> <PUBCHEM_FEATURE_SELFOVERLAP>
25.435

> <PUBCHEM_SHAPE_FINGERPRINT>
10369192 42 17392220433892128504
10411042 1 18122906431091306487
10595046 47 18343018861955811716
10616163 171 18410294700777438154
10680689 15 18413384332587752576
10912923 1 17846503651568506704
11056379 131 18410854343742775991
11405975 8 18411143562809272256
11524674 6 16732980908032931703
12107183 9 17837498809923809354
12236239 1 17704354381012697429
12390115 104 18189325948207675945
12821665 9 18128524973952542180
13167823 11 18342178873389390354
13288520 33 18408884010336965751
14251757 5 18408602565192820512
14341114 176 18408599236878372608
14508225 48 18266755597376911581
14617045 38 18410005537709105954
14790565 3 17832703843984463881
15042514 8 18340483358241146891
15196674 1 18410857663889756194
15230672 131 18196086879746229782
15250474 111 18271539666563519626
17804303 29 18335140860731359545
17834072 33 18343580725108589828
17844677 252 18409724041705808736
18927931 339 18409443661813740759
20871999 31 18412547613145330642
21065198 57 18409451401376339312
21267235 1 18341607063008374523
221357 26 18335423426556105298
221490 88 18337107852995517984
22393880 68 18409449198458887258
2297311 6 18409161087024377295
23175994 123 17095243613795591393
23402655 69 18271524286622521280
23557571 272 18335133194278260636
23559900 14 18335992969094642864
3004659 81 18269271430542760930
335352 9 18411140226131230269
3545911 37 18409729586450377184
4073 2 18273209777902912018
4214541 1 18410293622824718104
469060 322 13470110853489250275
5104073 3 18408047316558951040
559249 180 18338239379199008202
6327066 14 17913778481674595581
633830 44 17132108070196392728
77779 3 18410857668216300544
9709674 26 18334856147128190534

> <PUBCHEM_SHAPE_MULTIPOLES>
398.3
13.58
2.7
0.8
17.33
0.07
-0.1
1.37
2.3
-4.46
0.11
0.45
-0.02
0.2

> <PUBCHEM_SHAPE_SELFOVERLAP>
839.753

> <PUBCHEM_SHAPE_VOLUME>
228.3

> <PUBCHEM_COORDINATE_TYPE>
2
5
10

$$$$

