17395615
  -OEChem-06241222512D

 57 60  0     0  0  0  0  0  0999 V2000
    3.4030   -0.2694    0.0000 O   0  0  0  0  0  0  0  0  0  0  0  0
    7.7611    5.5094    0.0000 O   0  0  0  0  0  0  0  0  0  0  0  0
    2.5369   -4.7694    0.0000 O   0  0  0  0  0  0  0  0  0  0  0  0
    6.8671    0.7306    0.0000 O   0  0  0  0  0  0  0  0  0  0  0  0
    4.2690   -3.7694    0.0000 N   0  0  0  0  0  0  0  0  0  0  0  0
    4.2690   -1.7694    0.0000 N   0  0  0  0  0  0  0  0  0  0  0  0
    6.0010    5.2306    0.0000 N   0  0  0  0  0  0  0  0  0  0  0  0
    5.1350    0.7306    0.0000 N   0  0  0  0  0  0  0  0  0  0  0  0
    3.4030   -3.2694    0.0000 C   0  0  0  0  0  0  0  0  0  0  0  0
    5.1350   -3.2694    0.0000 C   0  0  0  0  0  0  0  0  0  0  0  0
    3.4030   -2.2694    0.0000 C   0  0  0  0  0  0  0  0  0  0  0  0
    5.1350   -2.2694    0.0000 C   0  0  0  0  0  0  0  0  0  0  0  0
    4.2690   -4.7694    0.0000 C   0  0  0  0  0  0  0  0  0  0  0  0
    4.2690   -0.7694    0.0000 C   0  0  0  0  0  0  0  0  0  0  0  0
    5.1920    5.8184    0.0000 C   0  0  0  0  0  0  0  0  0  0  0  0
    5.5010    6.7694    0.0000 C   0  0  0  0  0  0  0  0  0  0  0  0
    6.5010    6.7694    0.0000 C   0  0  0  0  0  0  0  0  0  0  0  0
    6.8100    5.8184    0.0000 C   0  0  0  0  0  0  0  0  0  0  0  0
    5.1350   -0.2694    0.0000 C   0  0  0  0  0  0  0  0  0  0  0  0
    6.0010    4.2306    0.0000 C   0  0  0  0  0  0  0  0  0  0  0  0
    3.4030   -5.2694    0.0000 C   0  0  0  0  0  0  0  0  0  0  0  0
    5.1350   -5.2694    0.0000 C   0  0  0  0  0  0  0  0  0  0  0  0
    5.1350    3.7306    0.0000 C   0  0  0  0  0  0  0  0  0  0  0  0
    6.8671    3.7306    0.0000 C   0  0  0  0  0  0  0  0  0  0  0  0
    6.0010    2.2306    0.0000 C   0  0  0  0  0  0  0  0  0  0  0  0
    3.4030   -6.2694    0.0000 C   0  0  0  0  0  0  0  0  0  0  0  0
    5.1350   -6.2694    0.0000 C   0  0  0  0  0  0  0  0  0  0  0  0
    6.0010    1.2306    0.0000 C   0  0  0  0  0  0  0  0  0  0  0  0
    5.1350    2.7306    0.0000 C   0  0  0  0  0  0  0  0  0  0  0  0
    6.8671    2.7306    0.0000 C   0  0  0  0  0  0  0  0  0  0  0  0
    4.2690   -6.7694    0.0000 C   0  0  0  0  0  0  0  0  0  0  0  0
    2.7924   -3.1618    0.0000 H   0  0  0  0  0  0  0  0  0  0  0  0
    3.1909   -3.8520    0.0000 H   0  0  0  0  0  0  0  0  0  0  0  0
    5.3471   -3.8520    0.0000 H   0  0  0  0  0  0  0  0  0  0  0  0
    5.7456   -3.1618    0.0000 H   0  0  0  0  0  0  0  0  0  0  0  0
    3.1909   -1.6868    0.0000 H   0  0  0  0  0  0  0  0  0  0  0  0
    2.7924   -2.3771    0.0000 H   0  0  0  0  0  0  0  0  0  0  0  0
    5.7456   -2.3771    0.0000 H   0  0  0  0  0  0  0  0  0  0  0  0
    5.3471   -1.6868    0.0000 H   0  0  0  0  0  0  0  0  0  0  0  0
    4.6256    6.0705    0.0000 H   0  0  0  0  0  0  0  0  0  0  0  0
    4.8820    5.2814    0.0000 H   0  0  0  0  0  0  0  0  0  0  0  0
    5.5658    7.3860    0.0000 H   0  0  0  0  0  0  0  0  0  0  0  0
    4.8946    6.8983    0.0000 H   0  0  0  0  0  0  0  0  0  0  0  0
    7.1075    6.8983    0.0000 H   0  0  0  0  0  0  0  0  0  0  0  0
    6.4362    7.3860    0.0000 H   0  0  0  0  0  0  0  0  0  0  0  0
    5.3471   -0.8520    0.0000 H   0  0  0  0  0  0  0  0  0  0  0  0
    5.7456   -0.1618    0.0000 H   0  0  0  0  0  0  0  0  0  0  0  0
    5.6720   -4.9594    0.0000 H   0  0  0  0  0  0  0  0  0  0  0  0
    4.5981    1.0406    0.0000 H   0  0  0  0  0  0  0  0  0  0  0  0
    4.5981    4.0406    0.0000 H   0  0  0  0  0  0  0  0  0  0  0  0
    7.4040    4.0406    0.0000 H   0  0  0  0  0  0  0  0  0  0  0  0
    2.8660   -6.5794    0.0000 H   0  0  0  0  0  0  0  0  0  0  0  0
    5.6720   -6.5794    0.0000 H   0  0  0  0  0  0  0  0  0  0  0  0
    4.5981    2.4206    0.0000 H   0  0  0  0  0  0  0  0  0  0  0  0
    7.4040    2.4206    0.0000 H   0  0  0  0  0  0  0  0  0  0  0  0
    4.2690   -7.3894    0.0000 H   0  0  0  0  0  0  0  0  0  0  0  0
    2.0000   -5.0794    0.0000 H   0  0  0  0  0  0  0  0  0  0  0  0
  1 14  2  0  0  0  0
  2 18  2  0  0  0  0
  3 21  1  0  0  0  0
  3 57  1  0  0  0  0
  4 28  2  0  0  0  0
  5  9  1  0  0  0  0
  5 10  1  0  0  0  0
  5 13  1  0  0  0  0
  6 11  1  0  0  0  0
  6 12  1  0  0  0  0
  6 14  1  0  0  0  0
  7 15  1  0  0  0  0
  7 18  1  0  0  0  0
  7 20  1  0  0  0  0
  8 19  1  0  0  0  0
  8 28  1  0  0  0  0
  8 49  1  0  0  0  0
  9 11  1  0  0  0  0
  9 32  1  0  0  0  0
  9 33  1  0  0  0  0
 10 12  1  0  0  0  0
 10 34  1  0  0  0  0
 10 35  1  0  0  0  0
 11 36  1  0  0  0  0
 11 37  1  0  0  0  0
 12 38  1  0  0  0  0
 12 39  1  0  0  0  0
 13 21  1  0  0  0  0
 13 22  2  0  0  0  0
 14 19  1  0  0  0  0
 15 16  1  0  0  0  0
 15 40  1  0  0  0  0
 15 41  1  0  0  0  0
 16 17  1  0  0  0  0
 16 42  1  0  0  0  0
 16 43  1  0  0  0  0
 17 18  1  0  0  0  0
 17 44  1  0  0  0  0
 17 45  1  0  0  0  0
 19 46  1  0  0  0  0
 19 47  1  0  0  0  0
 20 23  2  0  0  0  0
 20 24  1  0  0  0  0
 21 26  2  0  0  0  0
 22 27  1  0  0  0  0
 22 48  1  0  0  0  0
 23 29  1  0  0  0  0
 23 50  1  0  0  0  0
 24 30  2  0  0  0  0
 24 51  1  0  0  0  0
 25 28  1  0  0  0  0
 25 29  2  0  0  0  0
 25 30  1  0  0  0  0
 26 31  1  0  0  0  0
 26 52  1  0  0  0  0
 27 31  2  0  0  0  0
 27 53  1  0  0  0  0
 29 54  1  0  0  0  0
 30 55  1  0  0  0  0
 31 56  1  0  0  0  0
M  END
> <PUBCHEM_COMPOUND_CID>
17395615

> <PUBCHEM_COMPOUND_CANONICALIZED>
1

> <PUBCHEM_CACTVS_COMPLEXITY>
656

> <PUBCHEM_CACTVS_HBOND_ACCEPTOR>
5

> <PUBCHEM_CACTVS_HBOND_DONOR>
2

> <PUBCHEM_CACTVS_ROTATABLE_BOND>
5

> <PUBCHEM_CACTVS_SUBSKEYS>
AAADceB7uAAAAAAAAAAAAAAAAAAAAWAAAAA8YIAAAAAAAAABQAAAHgAQCAAADAzBmAQwxoPAAgCIAiVSUACCAAAlIgAIiIGPbMgKZjLSlbOUcQhkxhHY2YecyQCeCAAAAAAAEAAQAAAAAAAgAAAAAAAAAA==

> <PUBCHEM_IUPAC_OPENEYE_NAME>
N-[2-[4-(2-hydroxyphenyl)piperazin-1-yl]-2-oxo-ethyl]-4-(2-oxopyrrolidin-1-yl)benzamide

> <PUBCHEM_IUPAC_CAS_NAME>
N-[2-[4-(2-hydroxyphenyl)-1-piperazinyl]-2-oxoethyl]-4-(2-oxo-1-pyrrolidinyl)benzamide

> <PUBCHEM_IUPAC_NAME>
N-[2-[4-(2-hydroxyphenyl)piperazin-1-yl]-2-oxoethyl]-4-(2-oxopyrrolidin-1-yl)benzamide

> <PUBCHEM_IUPAC_SYSTEMATIC_NAME>
N-[2-[4-(2-hydroxyphenyl)piperazin-1-yl]-2-oxidanylidene-ethyl]-4-(2-oxidanylidenepyrrolidin-1-yl)benzamide

> <PUBCHEM_IUPAC_TRADITIONAL_NAME>
N-[2-[4-(2-hydroxyphenyl)piperazino]-2-keto-ethyl]-4-(2-ketopyrrolidino)benzamide

> <PUBCHEM_IUPAC_INCHI>
InChI=1S/C23H26N4O4/c28-20-5-2-1-4-19(20)25-12-14-26(15-13-25)22(30)16-24-23(31)17-7-9-18(10-8-17)27-11-3-6-21(27)29/h1-2,4-5,7-10,28H,3,6,11-16H2,(H,24,31)

> <PUBCHEM_IUPAC_INCHIKEY>
FNEJCLHLFNNAFX-UHFFFAOYSA-N

> <PUBCHEM_XLOGP3_AA>
1.4

> <PUBCHEM_EXACT_MASS>
422.195405

> <PUBCHEM_MOLECULAR_FORMULA>
C23H26N4O4

> <PUBCHEM_MOLECULAR_WEIGHT>
422.47694

> <PUBCHEM_OPENEYE_CAN_SMILES>
C1CC(=O)N(C1)C2=CC=C(C=C2)C(=O)NCC(=O)N3CCN(CC3)C4=CC=CC=C4O

> <PUBCHEM_OPENEYE_ISO_SMILES>
C1CC(=O)N(C1)C2=CC=C(C=C2)C(=O)NCC(=O)N3CCN(CC3)C4=CC=CC=C4O

> <PUBCHEM_CACTVS_TPSA>
93.2

> <PUBCHEM_MONOISOTOPIC_WEIGHT>
422.195405

> <PUBCHEM_TOTAL_CHARGE>
0

> <PUBCHEM_HEAVY_ATOM_COUNT>
31

> <PUBCHEM_ATOM_DEF_STEREO_COUNT>
0

> <PUBCHEM_ATOM_UDEF_STEREO_COUNT>
0

> <PUBCHEM_BOND_DEF_STEREO_COUNT>
0

> <PUBCHEM_BOND_UDEF_STEREO_COUNT>
0

> <PUBCHEM_ISOTOPIC_ATOM_COUNT>
0

> <PUBCHEM_COMPONENT_COUNT>
1

> <PUBCHEM_CACTVS_TAUTO_COUNT>
12

> <PUBCHEM_COORDINATE_TYPE>
1
5
255

> <PUBCHEM_BONDANNOTATIONS>
13  21  8
13  22  8
20  23  8
20  24  8
21  26  8
22  27  8
23  29  8
24  30  8
25  29  8
25  30  8
26  31  8
27  31  8

$$$$

