7336
  -OEChem-06261202013D

 35 35  0     1  0  0  0  0  0999 V2000
   -1.7398    0.7377    0.0572 O   0  0  0  0  0  0  0  0  0  0  0  0
   -2.2715   -1.0404   -1.3136 O   0  0  0  0  0  0  0  0  0  0  0  0
    1.8712   -0.2121   -0.3000 C   0  0  1  0  0  0  0  0  0  0  0  0
    0.3704   -0.3965   -0.0596 C   0  0  0  0  0  0  0  0  0  0  0  0
   -0.4196    0.8533   -0.4723 C   0  0  2  0  0  0  0  0  0  0  0  0
    2.3858    0.9930    0.5046 C   0  0  0  0  0  0  0  0  0  0  0  0
    0.2204    2.1508   -0.0317 C   0  0  0  0  0  0  0  0  0  0  0  0
    1.4857    2.1918    0.4218 C   0  0  0  0  0  0  0  0  0  0  0  0
    2.6349   -1.4535    0.0495 C   0  0  0  0  0  0  0  0  0  0  0  0
   -0.6055    3.3993   -0.1563 C   0  0  0  0  0  0  0  0  0  0  0  0
    3.3934   -2.1010   -1.0711 C   0  0  0  0  0  0  0  0  0  0  0  0
    2.6401   -1.9563    1.2929 C   0  0  0  0  0  0  0  0  0  0  0  0
   -2.4155   -0.4034   -0.2793 C   0  0  0  0  0  0  0  0  0  0  0  0
   -3.3734   -0.7558    0.8345 C   0  0  0  0  0  0  0  0  0  0  0  0
   -4.1765   -2.0067    0.5234 C   0  0  0  0  0  0  0  0  0  0  0  0
    2.0134    0.0086   -1.3678 H   0  0  0  0  0  0  0  0  0  0  0  0
    0.1651   -0.6200    0.9969 H   0  0  0  0  0  0  0  0  0  0  0  0
    0.0317   -1.2758   -0.6201 H   0  0  0  0  0  0  0  0  0  0  0  0
   -0.4925    0.8918   -1.5681 H   0  0  0  0  0  0  0  0  0  0  0  0
    3.3771    1.2737    0.1261 H   0  0  0  0  0  0  0  0  0  0  0  0
    2.5138    0.7579    1.5680 H   0  0  0  0  0  0  0  0  0  0  0  0
    1.9143    3.1382    0.7414 H   0  0  0  0  0  0  0  0  0  0  0  0
   -1.4715    3.3561    0.5117 H   0  0  0  0  0  0  0  0  0  0  0  0
   -0.9629    3.5153   -1.1847 H   0  0  0  0  0  0  0  0  0  0  0  0
   -0.0350    4.2987    0.0988 H   0  0  0  0  0  0  0  0  0  0  0  0
    2.7089   -2.3942   -1.8738 H   0  0  0  0  0  0  0  0  0  0  0  0
    4.1343   -1.4062   -1.4800 H   0  0  0  0  0  0  0  0  0  0  0  0
    3.9258   -2.9999   -0.7431 H   0  0  0  0  0  0  0  0  0  0  0  0
    3.1987   -2.8562    1.5296 H   0  0  0  0  0  0  0  0  0  0  0  0
    2.0915   -1.4951    2.1067 H   0  0  0  0  0  0  0  0  0  0  0  0
   -2.7949   -0.9143    1.7507 H   0  0  0  0  0  0  0  0  0  0  0  0
   -4.0576    0.0863    0.9828 H   0  0  0  0  0  0  0  0  0  0  0  0
   -3.5184   -2.8694    0.3750 H   0  0  0  0  0  0  0  0  0  0  0  0
   -4.8604   -2.2354    1.3465 H   0  0  0  0  0  0  0  0  0  0  0  0
   -4.7689   -1.8769   -0.3884 H   0  0  0  0  0  0  0  0  0  0  0  0
  1  5  1  0  0  0  0
  1 13  1  0  0  0  0
  2 13  2  0  0  0  0
  3  4  1  0  0  0  0
  3  6  1  0  0  0  0
  3  9  1  0  0  0  0
  3 16  1  0  0  0  0
  4  5  1  0  0  0  0
  4 17  1  0  0  0  0
  4 18  1  0  0  0  0
  5  7  1  0  0  0  0
  5 19  1  0  0  0  0
  6  8  1  0  0  0  0
  6 20  1  0  0  0  0
  6 21  1  0  0  0  0
  7  8  2  0  0  0  0
  7 10  1  0  0  0  0
  8 22  1  0  0  0  0
  9 11  1  0  0  0  0
  9 12  2  0  0  0  0
 10 23  1  0  0  0  0
 10 24  1  0  0  0  0
 10 25  1  0  0  0  0
 11 26  1  0  0  0  0
 11 27  1  0  0  0  0
 11 28  1  0  0  0  0
 12 29  1  0  0  0  0
 12 30  1  0  0  0  0
 13 14  1  0  0  0  0
 14 15  1  0  0  0  0
 14 31  1  0  0  0  0
 14 32  1  0  0  0  0
 15 33  1  0  0  0  0
 15 34  1  0  0  0  0
 15 35  1  0  0  0  0
M  END
> <PUBCHEM_COMPOUND_CID>
7336

> <PUBCHEM_CONFORMER_RMSD>
0.6

> <PUBCHEM_CONFORMER_DIVERSEORDER>
1
44
75
31
43
71
33
58
62
67
50
49
69
59
57
66
8
68
12
74
54
22
70
11
41
72
76
35
52
26
53
47
30
56
27
7
36
46
4
21
38
25
18
73
13
40
55
16
24
34
6
60
51
48
17
42
29
20
63
37
5
2
32
15
61
39
28
64
65
14
10
45
23
9
3
19

> <PUBCHEM_MMFF94_PARTIAL_CHARGES>
16
1 -0.43
10 0.14
11 0.14
12 -0.3
13 0.66
14 0.06
2 -0.57
22 0.15
29 0.15
3 0.14
30 0.15
5 0.42
6 0.14
7 -0.28
8 -0.29
9 -0.28

> <PUBCHEM_EFFECTIVE_ROTOR_COUNT>
4.8

> <PUBCHEM_PHARMACOPHORE_FEATURES>
3
1 15 hydrophobe
1 2 acceptor
6 3 4 5 6 7 8 rings

> <PUBCHEM_HEAVY_ATOM_COUNT>
15

> <PUBCHEM_ATOM_DEF_STEREO_COUNT>
0

> <PUBCHEM_ATOM_UDEF_STEREO_COUNT>
2

> <PUBCHEM_BOND_DEF_STEREO_COUNT>
0

> <PUBCHEM_BOND_UDEF_STEREO_COUNT>
0

> <PUBCHEM_ISOTOPIC_ATOM_COUNT>
0

> <PUBCHEM_COMPONENT_COUNT>
1

> <PUBCHEM_CACTVS_TAUTO_COUNT>
1

> <PUBCHEM_CONFORMER_ID>
00001CA800000001

> <PUBCHEM_MMFF94_ENERGY>
20.1763

> <PUBCHEM_FEATURE_SELFOVERLAP>
15.223

> <PUBCHEM_SHAPE_FINGERPRINT>
10618630 7 18343020020827017186
114674 6 17914893132734867099
12553582 1 18409171034190383622
13140716 1 18337678632004614817
13296908 3 18343025488610424895
13533116 47 18194391196819533187
13538477 17 17694218172964704454
14178342 30 17829901931757735595
14252887 29 18334009471803805538
15279307 12 17683239162503178919
15375462 189 18336827494019343923
15422964 175 18412547578622100849
16945 1 18193848037051765213
20291156 8 18410569608685674363
20339313 130 18335415759754580226
20559304 39 18264483980009102529
20645476 183 17334762567178612540
20645477 70 18337965476233900959
20871998 184 18043816613256278508
20871998 22 18409164411371346800
21296965 67 18410291445059780849
22445834 79 18189612744458286409
2255824 54 17977944579657998517
23184049 29 18339932635389470408
2334 1 18410300198182291005
23500284 5 18199752624930391875
23526113 38 18056229953916607045
23530152 11 17331393169234534037
23557571 272 17973456678668676154
23559900 14 17540824223869963710
23598291 2 18040997289502320423
23598294 1 18051130594727226154
2748010 2 18337407018383650396
3071541 236 17619640510659928744
31174 14 18268990878413858543
33824 294 18124878945744060067
54173680 148 18122624117714595824
5902787 121 18341901834892493442
7364860 26 18191863427147931972
81228 2 18049172351433061184
94968 8 18342731888725097618

> <PUBCHEM_SHAPE_MULTIPOLES>
296.95
6.01
3.32
1.01
3.76
2.21
0.01
-5.97
-0.58
-0.55
-0.14
-0.22
-0.48
0.5

> <PUBCHEM_SHAPE_SELFOVERLAP>
590.31

> <PUBCHEM_SHAPE_VOLUME>
176

> <PUBCHEM_COORDINATE_TYPE>
2
5
10

$$$$

