17395775
  -OEChem-06241222523D

 42 44  0     1  0  0  0  0  0999 V2000
   -0.2086    0.8125   -1.1536 O   0  0  0  0  0  0  0  0  0  0  0  0
   -2.4254   -0.3749   -0.1511 N   0  0  0  0  0  0  0  0  0  0  0  0
    2.9217   -1.7076    1.0077 N   0  0  0  0  0  0  0  0  0  0  0  0
   -2.3202    0.5486    0.9796 C   0  0  0  0  0  0  0  0  0  0  0  0
   -3.6050   -1.2458   -0.1114 C   0  0  0  0  0  0  0  0  0  0  0  0
   -3.0005    1.8809    0.6521 C   0  0  0  0  0  0  0  0  0  0  0  0
   -4.9361   -0.6074    0.2969 C   0  0  0  0  0  0  0  0  0  0  0  0
   -1.2139   -1.1851   -0.2923 C   0  0  2  0  0  0  0  0  0  0  0  0
   -4.5261    1.8659    0.6437 C   0  0  0  0  0  0  0  0  0  0  0  0
   -5.1620    0.8001   -0.2453 C   0  0  0  0  0  0  0  0  0  0  0  0
   -0.0377   -0.2331   -0.5219 C   0  0  0  0  0  0  0  0  0  0  0  0
   -1.3679   -2.1303   -1.4767 C   0  0  0  0  0  0  0  0  0  0  0  0
    1.3021   -0.5772   -0.0053 C   0  0  0  0  0  0  0  0  0  0  0  0
    2.5062    0.1726   -0.1189 C   0  0  0  0  0  0  0  0  0  0  0  0
    1.5897   -1.7278    0.6922 C   0  0  0  0  0  0  0  0  0  0  0  0
    3.5067   -0.5586    0.5249 C   0  0  0  0  0  0  0  0  0  0  0  0
    2.8418    1.4072   -0.7093 C   0  0  0  0  0  0  0  0  0  0  0  0
    4.8314   -0.1153    0.6079 C   0  0  0  0  0  0  0  0  0  0  0  0
    4.1630    1.8632   -0.6341 C   0  0  0  0  0  0  0  0  0  0  0  0
    5.1409    1.1120    0.0149 C   0  0  0  0  0  0  0  0  0  0  0  0
   -1.2842    0.7951    1.2381 H   0  0  0  0  0  0  0  0  0  0  0  0
   -2.7338    0.1112    1.8976 H   0  0  0  0  0  0  0  0  0  0  0  0
   -3.4403   -2.1024    0.5563 H   0  0  0  0  0  0  0  0  0  0  0  0
   -3.7815   -1.6461   -1.1172 H   0  0  0  0  0  0  0  0  0  0  0  0
   -2.6381    2.2491   -0.3168 H   0  0  0  0  0  0  0  0  0  0  0  0
   -2.6774    2.6239    1.3927 H   0  0  0  0  0  0  0  0  0  0  0  0
   -5.0266   -0.6051    1.3904 H   0  0  0  0  0  0  0  0  0  0  0  0
   -5.7428   -1.2561   -0.0686 H   0  0  0  0  0  0  0  0  0  0  0  0
   -1.0564   -1.7619    0.6254 H   0  0  0  0  0  0  0  0  0  0  0  0
   -4.8755    2.8513    0.3109 H   0  0  0  0  0  0  0  0  0  0  0  0
   -4.8895    1.7470    1.6724 H   0  0  0  0  0  0  0  0  0  0  0  0
   -6.2428    0.9882   -0.2648 H   0  0  0  0  0  0  0  0  0  0  0  0
   -4.8091    0.8889   -1.2791 H   0  0  0  0  0  0  0  0  0  0  0  0
   -1.7219   -1.6106   -2.3752 H   0  0  0  0  0  0  0  0  0  0  0  0
   -0.3973   -2.5684   -1.7394 H   0  0  0  0  0  0  0  0  0  0  0  0
   -2.0351   -2.9721   -1.2642 H   0  0  0  0  0  0  0  0  0  0  0  0
    0.9844   -2.5701    0.9956 H   0  0  0  0  0  0  0  0  0  0  0  0
    3.4068   -2.4317    1.5195 H   0  0  0  0  0  0  0  0  0  0  0  0
    2.0982    2.0113   -1.2204 H   0  0  0  0  0  0  0  0  0  0  0  0
    5.5934   -0.6995    1.1130 H   0  0  0  0  0  0  0  0  0  0  0  0
    4.4277    2.8148   -1.0876 H   0  0  0  0  0  0  0  0  0  0  0  0
    6.1608    1.4852    0.0615 H   0  0  0  0  0  0  0  0  0  0  0  0
  1 11  2  0  0  0  0
  2  4  1  0  0  0  0
  2  5  1  0  0  0  0
  2  8  1  0  0  0  0
  3 15  1  0  0  0  0
  3 16  1  0  0  0  0
  3 38  1  0  0  0  0
  4  6  1  0  0  0  0
  4 21  1  0  0  0  0
  4 22  1  0  0  0  0
  5  7  1  0  0  0  0
  5 23  1  0  0  0  0
  5 24  1  0  0  0  0
  6  9  1  0  0  0  0
  6 25  1  0  0  0  0
  6 26  1  0  0  0  0
  7 10  1  0  0  0  0
  7 27  1  0  0  0  0
  7 28  1  0  0  0  0
  8 11  1  0  0  0  0
  8 12  1  0  0  0  0
  8 29  1  0  0  0  0
  9 10  1  0  0  0  0
  9 30  1  0  0  0  0
  9 31  1  0  0  0  0
 10 32  1  0  0  0  0
 10 33  1  0  0  0  0
 11 13  1  0  0  0  0
 12 34  1  0  0  0  0
 12 35  1  0  0  0  0
 12 36  1  0  0  0  0
 13 14  1  0  0  0  0
 13 15  2  0  0  0  0
 14 16  1  0  0  0  0
 14 17  2  0  0  0  0
 15 37  1  0  0  0  0
 16 18  2  0  0  0  0
 17 19  1  0  0  0  0
 17 39  1  0  0  0  0
 18 20  1  0  0  0  0
 18 40  1  0  0  0  0
 19 20  2  0  0  0  0
 19 41  1  0  0  0  0
 20 42  1  0  0  0  0
M  END
> <PUBCHEM_COMPOUND_CID>
17395775

> <PUBCHEM_CONFORMER_RMSD>
0.6

> <PUBCHEM_CONFORMER_DIVERSEORDER>
1
142
138
18
51
109
256
79
24
108
231
245
28
141
166
269
153
137
273
235
149
230
161
259
151
228
94
68
188
180
197
53
254
124
40
114
113
239
217
45
73
262
233
207
249
72
20
145
9
16
247
175
81
257
97
234
222
202
55
92
173
177
167
264
162
41
95
159
27
179
176
101
266
158
199
13
38
37
165
91
22
203
190
69
112
241
198
193
185
186
211
242
240
174
67
219
11
77
200
3
90
70
221
98
35
76
191
7
116
66
263
128
155
130
64
99
44
21
270
164
274
258
59
107
36
218
60
104
118
195
213
4
246
194
62
220
178
147
32
209
74
250
111
160
125
169
184
243
212
75
139
208
236
253
140
105
248
102
148
122
52
43
42
133
143
196
117
171
156
237
15
26
88
157
25
225
170
189
49
182
144
204
2
215
154
39
82
85
244
205
56
134
227
226
110
216
255
106
119
57
121
181
146
19
136
86
214
54
87
80
71
12
183
78
135
103
46
50
131
34
61
8
260
163
126
10
267
100
14
63
31
168
33
229
47
210
268
224
201
48
127
29
272
5
271
83
172
17
89
120
192
58
129
206
115
132
123
265
152
223
23
232
30
251
84
6
252
187
238
96
261
65
93
150

> <PUBCHEM_MMFF94_PARTIAL_CHARGES>
20
1 -0.57
11 0.6
13 -0.09
15 -0.3
16 -0.15
17 -0.15
18 -0.15
19 -0.15
2 -0.81
20 -0.15
3 0.03
37 0.15
38 0.27
39 0.15
4 0.27
40 0.15
41 0.15
42 0.15
5 0.27
8 0.33

> <PUBCHEM_EFFECTIVE_ROTOR_COUNT>
4.4

> <PUBCHEM_PHARMACOPHORE_FEATURES>
7
1 1 acceptor
1 2 cation
1 3 cation
1 3 donor
5 3 13 14 15 16 rings
6 14 16 17 18 19 20 rings
7 2 4 5 6 7 9 10 rings

> <PUBCHEM_HEAVY_ATOM_COUNT>
20

> <PUBCHEM_ATOM_DEF_STEREO_COUNT>
0

> <PUBCHEM_ATOM_UDEF_STEREO_COUNT>
1

> <PUBCHEM_BOND_DEF_STEREO_COUNT>
0

> <PUBCHEM_BOND_UDEF_STEREO_COUNT>
0

> <PUBCHEM_ISOTOPIC_ATOM_COUNT>
0

> <PUBCHEM_COMPONENT_COUNT>
1

> <PUBCHEM_CACTVS_TAUTO_COUNT>
5

> <PUBCHEM_CONFORMER_ID>
0109703F00000001

> <PUBCHEM_MMFF94_ENERGY>
40.8671

> <PUBCHEM_FEATURE_SELFOVERLAP>
35.612

> <PUBCHEM_SHAPE_FINGERPRINT>
10498660 4 17894906360435315065
10670039 82 18114448059478549172
10759866 29 18408600391870900747
11089746 13 18187373107865733644
12107183 9 17764312038765920313
12236239 1 18410577275133518034
12251169 10 18413108376686208510
12390115 104 17531511183919160033
12596602 18 17988924457686808665
12633257 1 17275112708594275208
12670546 56 18343586261120798733
12892183 10 18131342038516935083
13583140 156 18059850650075706641
13675066 3 17203322355963816109
14251764 30 8141497147674282021
14341114 176 18342170081158812379
14341114 328 18412261739800427129
14386348 63 15626224623678755378
14739800 52 18041859328515404944
14790565 3 18057875858462877212
15188451 53 15769196260539809801
15196674 1 18411417323476079753
15209294 21 18411418401681747524
15342168 16 17774151285087258548
17834072 33 18413108342426618979
17980427 23 18411412922042307493
20157964 124 18270403918591364485
20279233 1 15769775753720798067
20511986 3 18341347633824383625
20645477 56 17749106660326285191
20715895 44 17906455785794274369
20739085 24 17918270957261997628
21065198 48 18413109480693328803
21503847 285 18342171207051978594
221357 26 6194845843468614323
22854114 59 17988924461538631174
23402539 116 17967258576750632333
23559900 14 17751354208243998367
34797466 226 17313657149098933612
38570 142 17914589723839892380
4340502 62 17632571648224220763
474 4 18059572439020984996
4921388 177 14490486252979952789
5104073 3 18272090495728049360
542803 24 18335139786636042571
6034566 193 16697213623120077132
633830 44 18335983181185974327
8272917 22 18341048613927575626

> <PUBCHEM_SHAPE_MULTIPOLES>
395.76
11.58
2.11
1.03
1.11
0.05
0.1
4.55
-1.4
0.49
0.12
-0.08
-0.16
-1.45

> <PUBCHEM_SHAPE_SELFOVERLAP>
843.817

> <PUBCHEM_SHAPE_VOLUME>
220.6

> <PUBCHEM_COORDINATE_TYPE>
2
5
10

$$$$

