17396413
  -OEChem-06241222563D

 40 42  0     1  0  0  0  0  0999 V2000
    1.2084   -0.5703   -2.1611 O   0  0  0  0  0  0  0  0  0  0  0  0
    1.4921   -1.1426    0.0542 N   0  0  0  0  0  0  0  0  0  0  0  0
   -4.6482    0.1892    0.2096 N   0  0  0  0  0  0  0  0  0  0  0  0
   -3.5744   -1.2265    1.4293 N   0  0  0  0  0  0  0  0  0  0  0  0
   -4.7666   -0.6359    1.2442 N   0  0  0  0  0  0  0  0  0  0  0  0
    2.9055   -1.4249   -0.0539 C   0  0  1  0  0  0  0  0  0  0  0  0
   -3.3614    0.1078   -0.2531 C   0  0  0  0  0  0  0  0  0  0  0  0
    3.7373   -0.1812    0.1739 C   0  0  0  0  0  0  0  0  0  0  0  0
   -0.6797   -0.4500   -0.7554 C   0  0  0  0  0  0  0  0  0  0  0  0
   -2.6505   -0.8002    0.5194 C   0  0  0  0  0  0  0  0  0  0  0  0
   -1.3092   -1.1105    0.3055 C   0  0  0  0  0  0  0  0  0  0  0  0
    0.7222   -0.7247   -1.0330 C   0  0  0  0  0  0  0  0  0  0  0  0
    3.2863   -2.5658    0.8874 C   0  0  0  0  0  0  0  0  0  0  0  0
   -2.7187    0.7632   -1.3136 C   0  0  0  0  0  0  0  0  0  0  0  0
   -5.7489    0.9883   -0.2586 C   0  0  0  0  0  0  0  0  0  0  0  0
   -1.3696    0.4698   -1.5510 C   0  0  0  0  0  0  0  0  0  0  0  0
    3.3107    0.7860    1.0838 C   0  0  0  0  0  0  0  0  0  0  0  0
    4.9302   -0.0020   -0.5263 C   0  0  0  0  0  0  0  0  0  0  0  0
   -5.8092    2.3421    0.4277 C   0  0  0  0  0  0  0  0  0  0  0  0
    4.0771    1.9323    1.2938 C   0  0  0  0  0  0  0  0  0  0  0  0
    5.6967    1.1444   -0.3163 C   0  0  0  0  0  0  0  0  0  0  0  0
    5.2702    2.1116    0.5937 C   0  0  0  0  0  0  0  0  0  0  0  0
    3.0848   -1.7695   -1.0807 H   0  0  0  0  0  0  0  0  0  0  0  0
    1.0925   -1.1580    0.9869 H   0  0  0  0  0  0  0  0  0  0  0  0
   -0.8252   -1.8523    0.9283 H   0  0  0  0  0  0  0  0  0  0  0  0
    4.3441   -2.8298    0.7810 H   0  0  0  0  0  0  0  0  0  0  0  0
    3.1143   -2.2938    1.9354 H   0  0  0  0  0  0  0  0  0  0  0  0
    2.6893   -3.4599    0.6762 H   0  0  0  0  0  0  0  0  0  0  0  0
   -3.2430    1.4812   -1.9361 H   0  0  0  0  0  0  0  0  0  0  0  0
   -5.6461    1.1109   -1.3417 H   0  0  0  0  0  0  0  0  0  0  0  0
   -6.6723    0.4269   -0.0777 H   0  0  0  0  0  0  0  0  0  0  0  0
   -0.8683    0.9815   -2.3699 H   0  0  0  0  0  0  0  0  0  0  0  0
    2.3946    0.6683    1.6555 H   0  0  0  0  0  0  0  0  0  0  0  0
    5.2746   -0.7488   -1.2367 H   0  0  0  0  0  0  0  0  0  0  0  0
   -5.9231    2.2305    1.5112 H   0  0  0  0  0  0  0  0  0  0  0  0
   -6.6588    2.9209    0.0524 H   0  0  0  0  0  0  0  0  0  0  0  0
   -4.8959    2.9183    0.2457 H   0  0  0  0  0  0  0  0  0  0  0  0
    3.7470    2.6839    2.0049 H   0  0  0  0  0  0  0  0  0  0  0  0
    6.6260    1.2836   -0.8609 H   0  0  0  0  0  0  0  0  0  0  0  0
    5.8674    3.0037    0.7579 H   0  0  0  0  0  0  0  0  0  0  0  0
  1 12  2  0  0  0  0
  2  6  1  0  0  0  0
  2 12  1  0  0  0  0
  2 24  1  0  0  0  0
  3  5  1  0  0  0  0
  3  7  1  0  0  0  0
  3 15  1  0  0  0  0
  4  5  2  0  0  0  0
  4 10  1  0  0  0  0
  6  8  1  0  0  0  0
  6 13  1  0  0  0  0
  6 23  1  0  0  0  0
  7 10  2  0  0  0  0
  7 14  1  0  0  0  0
  8 17  2  0  0  0  0
  8 18  1  0  0  0  0
  9 11  2  0  0  0  0
  9 12  1  0  0  0  0
  9 16  1  0  0  0  0
 10 11  1  0  0  0  0
 11 25  1  0  0  0  0
 13 26  1  0  0  0  0
 13 27  1  0  0  0  0
 13 28  1  0  0  0  0
 14 16  2  0  0  0  0
 14 29  1  0  0  0  0
 15 19  1  0  0  0  0
 15 30  1  0  0  0  0
 15 31  1  0  0  0  0
 16 32  1  0  0  0  0
 17 20  1  0  0  0  0
 17 33  1  0  0  0  0
 18 21  2  0  0  0  0
 18 34  1  0  0  0  0
 19 35  1  0  0  0  0
 19 36  1  0  0  0  0
 19 37  1  0  0  0  0
 20 22  2  0  0  0  0
 20 38  1  0  0  0  0
 21 22  1  0  0  0  0
 21 39  1  0  0  0  0
 22 40  1  0  0  0  0
M  END
> <PUBCHEM_COMPOUND_CID>
17396413

> <PUBCHEM_CONFORMER_RMSD>
0.8

> <PUBCHEM_CONFORMER_DIVERSEORDER>
1
10
25
13
11
9
3
24
5
18
23
8
21
15
7
2
20
16
19
22
4
17
6
14
12

> <PUBCHEM_MMFF94_PARTIAL_CHARGES>
29
1 -0.57
10 0.23
11 -0.15
12 0.54
14 -0.15
15 0.26
16 -0.15
17 -0.15
18 -0.15
2 -0.73
20 -0.15
21 -0.15
22 -0.15
24 0.37
25 0.15
29 0.15
3 0.31
32 0.15
33 0.15
34 0.15
38 0.15
39 0.15
4 -0.23
40 0.15
5 -0.42
6 0.44
7 -0.15
8 -0.14
9 0.09

> <PUBCHEM_EFFECTIVE_ROTOR_COUNT>
5

> <PUBCHEM_PHARMACOPHORE_FEATURES>
5
1 1 acceptor
1 2 donor
5 3 4 5 7 10 rings
6 7 9 10 11 14 16 rings
6 8 17 18 20 21 22 rings

> <PUBCHEM_HEAVY_ATOM_COUNT>
22

> <PUBCHEM_ATOM_DEF_STEREO_COUNT>
0

> <PUBCHEM_ATOM_UDEF_STEREO_COUNT>
1

> <PUBCHEM_BOND_DEF_STEREO_COUNT>
0

> <PUBCHEM_BOND_UDEF_STEREO_COUNT>
0

> <PUBCHEM_ISOTOPIC_ATOM_COUNT>
0

> <PUBCHEM_COMPONENT_COUNT>
1

> <PUBCHEM_CACTVS_TAUTO_COUNT>
2

> <PUBCHEM_CONFORMER_ID>
010972BD00000001

> <PUBCHEM_MMFF94_ENERGY>
51.1102

> <PUBCHEM_FEATURE_SELFOVERLAP>
25.476

> <PUBCHEM_SHAPE_FINGERPRINT>
10165383 225 18272647927624421350
10319926 262 17345494720131443136
10670039 82 15719381854549225760
10763959 59 18114175354714209268
11045977 3 18412823581694542362
11370993 144 18341050812866155931
12363563 72 9006510471648193794
12403259 415 17988367094995352367
12507560 40 18131357452795994334
12553582 1 15410892989467101259
12633257 1 17417820482968503600
13533116 47 18199189662303312059
13878862 14 18194143986057798788
14178342 30 16271100361238647278
14251751 18 10303808778762087609
14341114 176 18343861134579872596
14347332 77 7997976747816669653
14429115 67 13686033032914549752
14528608 73 17603874381405919869
14848160 23 10447937152687955904
14848178 5 11600015353182479584
14863182 85 14333414480243684786
15183329 4 6699540384947008430
15475509 35 13254498856655463085
17857418 61 13973963177946211697
1813 80 16591100095632033158
19784866 240 11743846884295410824
21033648 29 18408895013964264984
21065199 12 18059861696325461798
21315763 178 14548743884713657921
21315763 191 11383829394509594581
21637258 2 12463277087015689857
21859007 373 15912503406115985231
22122407 14 18114174254928152329
23366157 5 15337123318854888815
23503953 91 17489860545055125639
23559900 14 17917141809985767854
29717793 49 8142079849738562075
3004659 81 14201658885438811388
314194 84 13830136061521525584
32948 21 4895561783594622978
33382 64 11383826091300228141
34797466 226 17748820830927814031
474 4 17167859768472736806
4990 188 7420947560359275022
5104073 3 18131631227086221851
56616090 284 7853857187348016623
633830 44 18187936006743375124
6442390 28 18200875059679919402
7808743 9 17912926085643195212

> <PUBCHEM_SHAPE_MULTIPOLES>
426.96
14.49
2.11
1.41
4.22
0.3
0.31
8.36
-3.21
-1.4
-0.76
0.19
-0.08
0.82

> <PUBCHEM_SHAPE_SELFOVERLAP>
921.186

> <PUBCHEM_SHAPE_VOLUME>
235.5

> <PUBCHEM_COORDINATE_TYPE>
2
5
10

$$$$

