12912
  -OEChem-06261207322D

 31 32  0     0  0  0  0  0  0999 V2000
    8.9178   -0.8907    0.0000 O   0  0  0  0  0  0  0  0  0  0  0  0
    6.1075   -2.5734    0.0000 O   0  0  0  0  0  0  0  0  0  0  0  0
    2.0000   -0.5201    0.0000 O   0  0  0  0  0  0  0  0  0  0  0  0
    6.9178   -0.8907    0.0000 N   0  0  0  0  0  0  0  0  0  0  0  0
    7.4178   -0.0246    0.0000 N   0  0  0  0  0  0  0  0  0  0  0  0
    2.8262    0.0432    0.0000 N   0  0  0  0  0  0  0  0  0  0  0  0
    5.9178   -0.8907    0.0000 C   0  0  0  0  0  0  0  0  0  0  0  0
    8.9178    0.8414    0.0000 C   0  0  0  0  0  0  0  0  0  0  0  0
    8.4178   -0.0246    0.0000 C   0  0  0  0  0  0  0  0  0  0  0  0
    5.4840    0.0103    0.0000 C   0  0  0  0  0  0  0  0  0  0  0  0
    5.4840   -1.7916    0.0000 C   0  0  0  0  0  0  0  0  0  0  0  0
    9.9178    0.8414    0.0000 C   0  0  0  0  0  0  0  0  0  0  0  0
    8.4178    1.7074    0.0000 C   0  0  0  0  0  0  0  0  0  0  0  0
    4.5090    0.2328    0.0000 C   0  0  0  0  0  0  0  0  0  0  0  0
    4.5090   -2.0141    0.0000 C   0  0  0  0  0  0  0  0  0  0  0  0
    3.7272   -0.3907    0.0000 C   0  0  0  0  0  0  0  0  0  0  0  0
    3.7272   -1.3906    0.0000 C   0  0  0  0  0  0  0  0  0  0  0  0
   10.4179    1.7074    0.0000 C   0  0  0  0  0  0  0  0  0  0  0  0
    8.9178    2.5734    0.0000 C   0  0  0  0  0  0  0  0  0  0  0  0
    9.9178    2.5734    0.0000 C   0  0  0  0  0  0  0  0  0  0  0  0
    7.2278   -1.4276    0.0000 H   0  0  0  0  0  0  0  0  0  0  0  0
    5.8705    0.4951    0.0000 H   0  0  0  0  0  0  0  0  0  0  0  0
    7.1078    0.5123    0.0000 H   0  0  0  0  0  0  0  0  0  0  0  0
   10.2279    0.3045    0.0000 H   0  0  0  0  0  0  0  0  0  0  0  0
    7.7978    1.7074    0.0000 H   0  0  0  0  0  0  0  0  0  0  0  0
    4.3711    0.8373    0.0000 H   0  0  0  0  0  0  0  0  0  0  0  0
    4.3711   -2.6186    0.0000 H   0  0  0  0  0  0  0  0  0  0  0  0
    3.1686   -1.6597    0.0000 H   0  0  0  0  0  0  0  0  0  0  0  0
   11.0379    1.7074    0.0000 H   0  0  0  0  0  0  0  0  0  0  0  0
    8.6078    3.1104    0.0000 H   0  0  0  0  0  0  0  0  0  0  0  0
   10.2279    3.1104    0.0000 H   0  0  0  0  0  0  0  0  0  0  0  0
  1  9  2  0  0  0  0
  2 11  2  0  0  0  0
  3  6  2  0  0  0  0
  4  5  1  0  0  0  0
  4  7  1  0  0  0  0
  4 21  1  0  0  0  0
  5  9  1  0  0  0  0
  5 23  1  0  0  0  0
  6 16  1  0  0  0  0
  7 10  2  0  0  0  0
  7 11  1  0  0  0  0
  8  9  1  0  0  0  0
  8 12  2  0  0  0  0
  8 13  1  0  0  0  0
 10 14  1  0  0  0  0
 10 22  1  0  0  0  0
 11 15  1  0  0  0  0
 12 18  1  0  0  0  0
 12 24  1  0  0  0  0
 13 19  2  0  0  0  0
 13 25  1  0  0  0  0
 14 16  2  0  0  0  0
 14 26  1  0  0  0  0
 15 17  2  0  0  0  0
 15 27  1  0  0  0  0
 16 17  1  0  0  0  0
 17 28  1  0  0  0  0
 18 20  2  0  0  0  0
 18 29  1  0  0  0  0
 19 20  1  0  0  0  0
 19 30  1  0  0  0  0
 20 31  1  0  0  0  0
M  END
> <PUBCHEM_COMPOUND_CID>
12912

> <PUBCHEM_COMPOUND_CANONICALIZED>
1

> <PUBCHEM_CACTVS_COMPLEXITY>
500

> <PUBCHEM_CACTVS_HBOND_ACCEPTOR>
5

> <PUBCHEM_CACTVS_HBOND_DONOR>
2

> <PUBCHEM_CACTVS_ROTATABLE_BOND>
3

> <PUBCHEM_CACTVS_SUBSKEYS>
AAADccBzMAAAAAAAAAAAAAAAAAAAAAAAAAAwAAAABAAAAAABAAAAHgAcAAAADAyBmAAwAIByAACJAqVSUgCCAAAkAgIaqAGABMgIIDKAlRGAIQBggAAIiYcYiACOAAAAAAAAAAAAAAAAAAAAAAAAAAAAAA==

> <PUBCHEM_IUPAC_OPENEYE_NAME>
N'-(4-nitroso-7-oxo-cyclohepta-1,3,5-trien-1-yl)benzohydrazide

> <PUBCHEM_IUPAC_CAS_NAME>
N'-(4-nitroso-7-oxo-1-cyclohepta-1,3,5-trienyl)benzohydrazide

> <PUBCHEM_IUPAC_NAME>
N'-(4-nitroso-7-oxocyclohepta-1,3,5-trien-1-yl)benzohydrazide

> <PUBCHEM_IUPAC_SYSTEMATIC_NAME>
N'-(4-nitroso-7-oxidanylidene-cyclohepta-1,3,5-trien-1-yl)benzohydrazide

> <PUBCHEM_IUPAC_TRADITIONAL_NAME>
N'-(7-keto-4-nitroso-cyclohepta-1,3,5-trien-1-yl)benzohydrazide

> <PUBCHEM_IUPAC_INCHI>
InChI=1S/C14H11N3O3/c18-13-9-7-11(17-20)6-8-12(13)15-16-14(19)10-4-2-1-3-5-10/h1-9H,(H,15,18)(H,16,19)

> <PUBCHEM_IUPAC_INCHIKEY>
FYVMVDFXQYNRKM-UHFFFAOYSA-N

> <PUBCHEM_XLOGP3_AA>
2.6

> <PUBCHEM_EXACT_MASS>
269.080041

> <PUBCHEM_MOLECULAR_FORMULA>
C14H11N3O3

> <PUBCHEM_MOLECULAR_WEIGHT>
269.25544

> <PUBCHEM_OPENEYE_CAN_SMILES>
C1=CC=C(C=C1)C(=O)NNC2=CC=C(C=CC2=O)N=O

> <PUBCHEM_OPENEYE_ISO_SMILES>
C1=CC=C(C=C1)C(=O)NNC2=CC=C(C=CC2=O)N=O

> <PUBCHEM_CACTVS_TPSA>
87.6

> <PUBCHEM_MONOISOTOPIC_WEIGHT>
269.080041

> <PUBCHEM_TOTAL_CHARGE>
0

> <PUBCHEM_HEAVY_ATOM_COUNT>
20

> <PUBCHEM_ATOM_DEF_STEREO_COUNT>
0

> <PUBCHEM_ATOM_UDEF_STEREO_COUNT>
0

> <PUBCHEM_BOND_DEF_STEREO_COUNT>
0

> <PUBCHEM_BOND_UDEF_STEREO_COUNT>
0

> <PUBCHEM_ISOTOPIC_ATOM_COUNT>
0

> <PUBCHEM_COMPONENT_COUNT>
1

> <PUBCHEM_CACTVS_TAUTO_COUNT>
28

> <PUBCHEM_COORDINATE_TYPE>
1
5
255

> <PUBCHEM_BONDANNOTATIONS>
10  14  8
11  15  8
12  18  8
13  19  8
14  16  8
15  17  8
16  17  8
18  20  8
19  20  8
7  10  8
7  11  8
8  12  8
8  13  8

$$$$

