9389
  -OEChem-06261203402D

 32 31  0     0  0  0  0  0  0999 V2000
    2.0000   -2.7500    0.0000 Br  0  0  0  0  0  0  0  0  0  0  0  0
    5.8301    0.6160    0.0000 F   0  0  0  0  0  0  0  0  0  0  0  0
    6.8301   -1.1160    0.0000 F   0  0  0  0  0  0  0  0  0  0  0  0
    7.6962   -0.6160    0.0000 F   0  0  0  0  0  0  0  0  0  0  0  0
    6.6962    1.1160    0.0000 F   0  0  0  0  0  0  0  0  0  0  0  0
    4.9641    0.1160    0.0000 F   0  0  0  0  0  0  0  0  0  0  0  0
    5.9641   -1.6160    0.0000 F   0  0  0  0  0  0  0  0  0  0  0  0
    8.5622   -0.1160    0.0000 F   0  0  0  0  0  0  0  0  0  0  0  0
    7.5622    1.6160    0.0000 F   0  0  0  0  0  0  0  0  0  0  0  0
    4.0981   -0.3840    0.0000 F   0  0  0  0  0  0  0  0  0  0  0  0
    5.0981   -2.1160    0.0000 F   0  0  0  0  0  0  0  0  0  0  0  0
    9.4282    0.3840    0.0000 F   0  0  0  0  0  0  0  0  0  0  0  0
    8.4282    2.1160    0.0000 F   0  0  0  0  0  0  0  0  0  0  0  0
    3.2320   -0.8840    0.0000 F   0  0  0  0  0  0  0  0  0  0  0  0
    4.2320   -2.6160    0.0000 F   0  0  0  0  0  0  0  0  0  0  0  0
   10.2942    0.8840    0.0000 F   0  0  0  0  0  0  0  0  0  0  0  0
    9.2942    2.6160    0.0000 F   0  0  0  0  0  0  0  0  0  0  0  0
    2.3660   -1.3840    0.0000 F   0  0  0  0  0  0  0  0  0  0  0  0
    3.3660   -3.1160    0.0000 F   0  0  0  0  0  0  0  0  0  0  0  0
   11.5263    2.7500    0.0000 F   0  0  0  0  0  0  0  0  0  0  0  0
   11.1603    1.3840    0.0000 F   0  0  0  0  0  0  0  0  0  0  0  0
   10.1603    3.1160    0.0000 F   0  0  0  0  0  0  0  0  0  0  0  0
    6.3301   -0.2500    0.0000 C   0  0  0  0  0  0  0  0  0  0  0  0
    7.1962    0.2500    0.0000 C   0  0  0  0  0  0  0  0  0  0  0  0
    5.4641   -0.7500    0.0000 C   0  0  0  0  0  0  0  0  0  0  0  0
    8.0622    0.7500    0.0000 C   0  0  0  0  0  0  0  0  0  0  0  0
    4.5981   -1.2500    0.0000 C   0  0  0  0  0  0  0  0  0  0  0  0
    8.9282    1.2500    0.0000 C   0  0  0  0  0  0  0  0  0  0  0  0
    3.7320   -1.7500    0.0000 C   0  0  0  0  0  0  0  0  0  0  0  0
    9.7942    1.7500    0.0000 C   0  0  0  0  0  0  0  0  0  0  0  0
    2.8660   -2.2500    0.0000 C   0  0  0  0  0  0  0  0  0  0  0  0
   10.6603    2.2500    0.0000 C   0  0  0  0  0  0  0  0  0  0  0  0
  1 31  1  0  0  0  0
  2 23  1  0  0  0  0
  3 23  1  0  0  0  0
  4 24  1  0  0  0  0
  5 24  1  0  0  0  0
  6 25  1  0  0  0  0
  7 25  1  0  0  0  0
  8 26  1  0  0  0  0
  9 26  1  0  0  0  0
 10 27  1  0  0  0  0
 11 27  1  0  0  0  0
 12 28  1  0  0  0  0
 13 28  1  0  0  0  0
 14 29  1  0  0  0  0
 15 29  1  0  0  0  0
 16 30  1  0  0  0  0
 17 30  1  0  0  0  0
 18 31  1  0  0  0  0
 19 31  1  0  0  0  0
 20 32  1  0  0  0  0
 21 32  1  0  0  0  0
 22 32  1  0  0  0  0
 23 24  1  0  0  0  0
 23 25  1  0  0  0  0
 24 26  1  0  0  0  0
 25 27  1  0  0  0  0
 26 28  1  0  0  0  0
 27 29  1  0  0  0  0
 28 30  1  0  0  0  0
 29 31  1  0  0  0  0
 30 32  1  0  0  0  0
M  END
> <PUBCHEM_COMPOUND_CID>
9389

> <PUBCHEM_COMPOUND_CANONICALIZED>
1

> <PUBCHEM_CACTVS_COMPLEXITY>
698

> <PUBCHEM_CACTVS_HBOND_ACCEPTOR>
21

> <PUBCHEM_CACTVS_HBOND_DONOR>
0

> <PUBCHEM_CACTVS_ROTATABLE_BOND>
8

> <PUBCHEM_CACTVS_SUBSKEYS>
AAADcQBwAcAAEAAAAAAAAAAAAAAAAAAAAAAAAAAAAAAAAAAAAAAACQBAAAABCAAAABAAAAAAAAAAAAAAAAAAAAAAAAAAAAAAACAAAAIAAAAAAAAAAAAAAAEAgIAAAAAAAAAAAAAAAAAAAAAAAAAAAAAAAA==

> <PUBCHEM_IUPAC_OPENEYE_NAME>
1-bromo-1,1,2,2,3,3,4,4,5,5,6,6,7,7,8,8,9,9,10,10,10-henicosafluoro-decane

> <PUBCHEM_IUPAC_CAS_NAME>
1-bromo-1,1,2,2,3,3,4,4,5,5,6,6,7,7,8,8,9,9,10,10,10-heneicosafluorodecane

> <PUBCHEM_IUPAC_NAME>
1-bromo-1,1,2,2,3,3,4,4,5,5,6,6,7,7,8,8,9,9,10,10,10-henicosafluorodecane

> <PUBCHEM_IUPAC_SYSTEMATIC_NAME>
1-bromanyl-1,1,2,2,3,3,4,4,5,5,6,6,7,7,8,8,9,9,10,10,10-henicosakis(fluoranyl)decane

> <PUBCHEM_IUPAC_TRADITIONAL_NAME>
1-bromo-1,1,2,2,3,3,4,4,5,5,6,6,7,7,8,8,9,9,10,10,10-heneicosafluoro-decane

> <PUBCHEM_IUPAC_INCHI>
InChI=1S/C10BrF21/c11-9(28,29)7(24,25)5(20,21)3(16,17)1(12,13)2(14,15)4(18,19)6(22,23)8(26,27)10(30,31)32

> <PUBCHEM_IUPAC_INCHIKEY>
JCAULFRGWRHHIG-UHFFFAOYSA-N

> <PUBCHEM_XLOGP3_AA>
8.2

> <PUBCHEM_EXACT_MASS>
597.884805

> <PUBCHEM_MOLECULAR_FORMULA>
C10BrF21

> <PUBCHEM_MOLECULAR_WEIGHT>
598.977467

> <PUBCHEM_OPENEYE_CAN_SMILES>
C(C(C(C(C(C(F)(F)Br)(F)F)(F)F)(F)F)(F)F)(C(C(C(C(F)(F)F)(F)F)(F)F)(F)F)(F)F

> <PUBCHEM_OPENEYE_ISO_SMILES>
C(C(C(C(C(C(F)(F)Br)(F)F)(F)F)(F)F)(F)F)(C(C(C(C(F)(F)F)(F)F)(F)F)(F)F)(F)F

> <PUBCHEM_CACTVS_TPSA>
0

> <PUBCHEM_MONOISOTOPIC_WEIGHT>
597.884805

> <PUBCHEM_TOTAL_CHARGE>
0

> <PUBCHEM_HEAVY_ATOM_COUNT>
32

> <PUBCHEM_ATOM_DEF_STEREO_COUNT>
0

> <PUBCHEM_ATOM_UDEF_STEREO_COUNT>
0

> <PUBCHEM_BOND_DEF_STEREO_COUNT>
0

> <PUBCHEM_BOND_UDEF_STEREO_COUNT>
0

> <PUBCHEM_ISOTOPIC_ATOM_COUNT>
0

> <PUBCHEM_COMPONENT_COUNT>
1

> <PUBCHEM_CACTVS_TAUTO_COUNT>
1

> <PUBCHEM_COORDINATE_TYPE>
1
5
255

$$$$

