17395765
  -OEChem-06241222522D

 46 48  0     1  0  0  0  0  0999 V2000
   10.6603    0.2327    0.0000 O   0  0  0  0  0  0  0  0  0  0  0  0
   10.6603    2.2327    0.0000 O   0  0  0  0  0  0  0  0  0  0  0  0
    5.4641    0.2327    0.0000 O   0  0  0  0  0  0  0  0  0  0  0  0
    7.1962   -0.7673    0.0000 O   0  0  0  0  0  0  0  0  0  0  0  0
    2.0000   -0.7673    0.0000 O   0  0  0  0  0  0  0  0  0  0  0  0
    8.0622    0.7327    0.0000 N   0  0  0  0  0  0  0  0  0  0  0  0
    3.7320   -0.7673    0.0000 N   0  0  0  0  0  0  0  0  0  0  0  0
    9.7942    0.7327    0.0000 C   0  0  3  0  0  0  0  0  0  0  0  0
    8.9282    0.2327    0.0000 C   0  0  0  0  0  0  0  0  0  0  0  0
    9.7942    1.7327    0.0000 C   0  0  0  0  0  0  0  0  0  0  0  0
   11.5263    0.7327    0.0000 C   0  0  0  0  0  0  0  0  0  0  0  0
   11.5263    1.7327    0.0000 C   0  0  0  0  0  0  0  0  0  0  0  0
   12.4202    0.1980    0.0000 C   0  0  0  0  0  0  0  0  0  0  0  0
   12.4202    2.2673    0.0000 C   0  0  0  0  0  0  0  0  0  0  0  0
    7.1962    0.2327    0.0000 C   0  0  0  0  0  0  0  0  0  0  0  0
    6.3301    0.7327    0.0000 C   0  0  0  0  0  0  0  0  0  0  0  0
   13.3263    0.7119    0.0000 C   0  0  0  0  0  0  0  0  0  0  0  0
   13.3263    1.7535    0.0000 C   0  0  0  0  0  0  0  0  0  0  0  0
    4.5981    0.7327    0.0000 C   0  0  0  0  0  0  0  0  0  0  0  0
    3.7320    0.2327    0.0000 C   0  0  0  0  0  0  0  0  0  0  0  0
    4.5981    1.7327    0.0000 C   0  0  0  0  0  0  0  0  0  0  0  0
    2.8660    0.7327    0.0000 C   0  0  0  0  0  0  0  0  0  0  0  0
    3.7320    2.2327    0.0000 C   0  0  0  0  0  0  0  0  0  0  0  0
    2.8660    1.7327    0.0000 C   0  0  0  0  0  0  0  0  0  0  0  0
    2.8660   -1.2673    0.0000 C   0  0  0  0  0  0  0  0  0  0  0  0
    2.8660   -2.2673    0.0000 C   0  0  0  0  0  0  0  0  0  0  0  0
    9.7942    0.1127    0.0000 H   0  0  0  0  0  0  0  0  0  0  0  0
    8.5297   -0.2423    0.0000 H   0  0  0  0  0  0  0  0  0  0  0  0
    9.3267   -0.2423    0.0000 H   0  0  0  0  0  0  0  0  0  0  0  0
    9.5822    2.3153    0.0000 H   0  0  0  0  0  0  0  0  0  0  0  0
    9.1836    1.6250    0.0000 H   0  0  0  0  0  0  0  0  0  0  0  0
    8.0622    1.3527    0.0000 H   0  0  0  0  0  0  0  0  0  0  0  0
   12.4131   -0.4220    0.0000 H   0  0  0  0  0  0  0  0  0  0  0  0
   12.4131    2.8873    0.0000 H   0  0  0  0  0  0  0  0  0  0  0  0
    6.7287    1.2076    0.0000 H   0  0  0  0  0  0  0  0  0  0  0  0
    5.9316    1.2076    0.0000 H   0  0  0  0  0  0  0  0  0  0  0  0
   13.8620    0.3998    0.0000 H   0  0  0  0  0  0  0  0  0  0  0  0
   13.8620    2.0656    0.0000 H   0  0  0  0  0  0  0  0  0  0  0  0
    5.1350    2.0427    0.0000 H   0  0  0  0  0  0  0  0  0  0  0  0
    2.3291    0.4227    0.0000 H   0  0  0  0  0  0  0  0  0  0  0  0
    3.7320    2.8527    0.0000 H   0  0  0  0  0  0  0  0  0  0  0  0
    4.2690   -1.0773    0.0000 H   0  0  0  0  0  0  0  0  0  0  0  0
    2.3291    2.0427    0.0000 H   0  0  0  0  0  0  0  0  0  0  0  0
    2.2460   -2.2673    0.0000 H   0  0  0  0  0  0  0  0  0  0  0  0
    2.8660   -2.8873    0.0000 H   0  0  0  0  0  0  0  0  0  0  0  0
    3.4860   -2.2673    0.0000 H   0  0  0  0  0  0  0  0  0  0  0  0
  1  8  1  0  0  0  0
  1 11  1  0  0  0  0
  2 10  1  0  0  0  0
  2 12  1  0  0  0  0
  3 16  1  0  0  0  0
  3 19  1  0  0  0  0
  4 15  2  0  0  0  0
  5 25  2  0  0  0  0
  6  9  1  0  0  0  0
  6 15  1  0  0  0  0
  6 32  1  0  0  0  0
  7 20  1  0  0  0  0
  7 25  1  0  0  0  0
  7 42  1  0  0  0  0
  8  9  1  0  0  0  0
  8 10  1  0  0  0  0
  8 27  1  0  0  0  0
  9 28  1  0  0  0  0
  9 29  1  0  0  0  0
 10 30  1  0  0  0  0
 10 31  1  0  0  0  0
 11 12  1  0  0  0  0
 11 13  2  0  0  0  0
 12 14  2  0  0  0  0
 13 17  1  0  0  0  0
 13 33  1  0  0  0  0
 14 18  1  0  0  0  0
 14 34  1  0  0  0  0
 15 16  1  0  0  0  0
 16 35  1  0  0  0  0
 16 36  1  0  0  0  0
 17 18  2  0  0  0  0
 17 37  1  0  0  0  0
 18 38  1  0  0  0  0
 19 20  1  0  0  0  0
 19 21  2  0  0  0  0
 20 22  2  0  0  0  0
 21 23  1  0  0  0  0
 21 39  1  0  0  0  0
 22 24  1  0  0  0  0
 22 40  1  0  0  0  0
 23 24  2  0  0  0  0
 23 41  1  0  0  0  0
 24 43  1  0  0  0  0
 25 26  1  0  0  0  0
 26 44  1  0  0  0  0
 26 45  1  0  0  0  0
 26 46  1  0  0  0  0
M  END
> <PUBCHEM_COMPOUND_CID>
17395765

> <PUBCHEM_COMPOUND_CANONICALIZED>
1

> <PUBCHEM_CACTVS_COMPLEXITY>
487

> <PUBCHEM_CACTVS_HBOND_ACCEPTOR>
5

> <PUBCHEM_CACTVS_HBOND_DONOR>
2

> <PUBCHEM_CACTVS_ROTATABLE_BOND>
6

> <PUBCHEM_CACTVS_SUBSKEYS>
AAADceB7OAAAAAAAAAAAAAAAAAAAAAAAAAA0YIAAAAAAAACRQAAAHgAQAAAACBzhkAYyxoLABACIACVSUAKCCAAhIgAIiIBP7IgPJiLEsZ+HOCrm1hHa6AeQQAAAAAAAAAAAUAAAAAAAAACgAAAAAAAAAA==

> <PUBCHEM_IUPAC_OPENEYE_NAME>
2-(2-acetamidophenoxy)-N-(2,3-dihydro-1,4-benzodioxin-3-ylmethyl)acetamide

> <PUBCHEM_IUPAC_CAS_NAME>
2-(2-acetamidophenoxy)-N-(2,3-dihydro-1,4-benzodioxin-3-ylmethyl)acetamide

> <PUBCHEM_IUPAC_NAME>
2-(2-acetamidophenoxy)-N-(2,3-dihydro-1,4-benzodioxin-3-ylmethyl)acetamide

> <PUBCHEM_IUPAC_SYSTEMATIC_NAME>
2-(2-acetamidophenoxy)-N-(2,3-dihydro-1,4-benzodioxin-3-ylmethyl)ethanamide

> <PUBCHEM_IUPAC_TRADITIONAL_NAME>
2-(2-acetamidophenoxy)-N-(2,3-dihydro-1,4-benzodioxin-3-ylmethyl)acetamide

> <PUBCHEM_IUPAC_INCHI>
InChI=1S/C19H20N2O5/c1-13(22)21-15-6-2-3-7-16(15)25-12-19(23)20-10-14-11-24-17-8-4-5-9-18(17)26-14/h2-9,14H,10-12H2,1H3,(H,20,23)(H,21,22)

> <PUBCHEM_IUPAC_INCHIKEY>
KZLXDVSVOIMKND-UHFFFAOYSA-N

> <PUBCHEM_XLOGP3_AA>
1.9

> <PUBCHEM_EXACT_MASS>
356.137222

> <PUBCHEM_MOLECULAR_FORMULA>
C19H20N2O5

> <PUBCHEM_MOLECULAR_WEIGHT>
356.3725

> <PUBCHEM_OPENEYE_CAN_SMILES>
CC(=O)NC1=CC=CC=C1OCC(=O)NCC2COC3=CC=CC=C3O2

> <PUBCHEM_OPENEYE_ISO_SMILES>
CC(=O)NC1=CC=CC=C1OCC(=O)NCC2COC3=CC=CC=C3O2

> <PUBCHEM_CACTVS_TPSA>
85.9

> <PUBCHEM_MONOISOTOPIC_WEIGHT>
356.137222

> <PUBCHEM_TOTAL_CHARGE>
0

> <PUBCHEM_HEAVY_ATOM_COUNT>
26

> <PUBCHEM_ATOM_DEF_STEREO_COUNT>
0

> <PUBCHEM_ATOM_UDEF_STEREO_COUNT>
1

> <PUBCHEM_BOND_DEF_STEREO_COUNT>
0

> <PUBCHEM_BOND_UDEF_STEREO_COUNT>
0

> <PUBCHEM_ISOTOPIC_ATOM_COUNT>
0

> <PUBCHEM_COMPONENT_COUNT>
1

> <PUBCHEM_CACTVS_TAUTO_COUNT>
6

> <PUBCHEM_COORDINATE_TYPE>
1
5
255

> <PUBCHEM_BONDANNOTATIONS>
11  12  8
11  13  8
12  14  8
13  17  8
14  18  8
17  18  8
19  20  8
19  21  8
20  22  8
21  23  8
22  24  8
23  24  8
8  9  3

$$$$

