51091001
  -OEChem-06241223013D

 48 49  0     1  0  0  0  0  0999 V2000
    4.8627   -0.5718    0.1117 S   0  0  0  0  0  0  0  0  0  0  0  0
   -1.1842    0.2741    1.9295 O   0  0  0  0  0  0  0  0  0  0  0  0
    5.0477   -1.8934   -0.4446 O   0  0  0  0  0  0  0  0  0  0  0  0
    5.5626   -0.1405    1.3011 O   0  0  0  0  0  0  0  0  0  0  0  0
    3.1852   -0.2982    0.3318 N   0  0  0  0  0  0  0  0  0  0  0  0
   -1.9407    0.6370   -0.2420 N   0  0  0  0  0  0  0  0  0  0  0  0
   -5.3116   -0.9356    0.1908 N   0  0  1  0  0  0  0  0  0  0  0  0
    0.4137    0.5596    0.1811 C   0  0  0  0  0  0  0  0  0  0  0  0
   -3.3567    0.5787    0.0298 C   0  0  1  0  0  0  0  0  0  0  0  0
    0.8567   -0.8286   -0.2840 C   0  0  0  0  0  0  0  0  0  0  0  0
    1.3725    1.1047    1.2403 C   0  0  0  0  0  0  0  0  0  0  0  0
    2.8138    1.0883    0.7410 C   0  0  0  0  0  0  0  0  0  0  0  0
    2.3066   -0.8160   -0.7578 C   0  0  0  0  0  0  0  0  0  0  0  0
   -4.1284    1.4970   -0.9184 C   0  0  0  0  0  0  0  0  0  0  0  0
   -3.8658   -0.8651   -0.0658 C   0  0  0  0  0  0  0  0  0  0  0  0
   -0.9745    0.4788    0.7368 C   0  0  0  0  0  0  0  0  0  0  0  0
   -5.6298    1.3506   -0.6975 C   0  0  0  0  0  0  0  0  0  0  0  0
   -6.0619   -0.1145   -0.7693 C   0  0  0  0  0  0  0  0  0  0  0  0
    5.1758    0.6134   -1.1707 C   0  0  0  0  0  0  0  0  0  0  0  0
   -5.7722   -2.3234    0.1470 C   0  0  0  0  0  0  0  0  0  0  0  0
    6.6285    0.6051   -1.5909 C   0  0  0  0  0  0  0  0  0  0  0  0
    0.4227    1.2469   -0.6756 H   0  0  0  0  0  0  0  0  0  0  0  0
   -3.5122    0.9326    1.0582 H   0  0  0  0  0  0  0  0  0  0  0  0
    0.7475   -1.5496    0.5374 H   0  0  0  0  0  0  0  0  0  0  0  0
    0.2098   -1.1826   -1.0958 H   0  0  0  0  0  0  0  0  0  0  0  0
    1.0882    2.1273    1.5165 H   0  0  0  0  0  0  0  0  0  0  0  0
    1.3128    0.5038    2.1577 H   0  0  0  0  0  0  0  0  0  0  0  0
    2.5895   -1.8402   -1.0201 H   0  0  0  0  0  0  0  0  0  0  0  0
    2.3985   -0.1903   -1.6517 H   0  0  0  0  0  0  0  0  0  0  0  0
    2.9021    1.7766   -0.1057 H   0  0  0  0  0  0  0  0  0  0  0  0
    3.4694    1.4345    1.5462 H   0  0  0  0  0  0  0  0  0  0  0  0
   -3.8275    2.5406   -0.7675 H   0  0  0  0  0  0  0  0  0  0  0  0
   -3.8884    1.2501   -1.9609 H   0  0  0  0  0  0  0  0  0  0  0  0
   -3.6236   -1.2844   -1.0525 H   0  0  0  0  0  0  0  0  0  0  0  0
   -3.3326   -1.4757    0.6747 H   0  0  0  0  0  0  0  0  0  0  0  0
   -6.1723    1.9336   -1.4503 H   0  0  0  0  0  0  0  0  0  0  0  0
   -5.8976    1.7658    0.2824 H   0  0  0  0  0  0  0  0  0  0  0  0
   -1.6497    0.7296   -1.2111 H   0  0  0  0  0  0  0  0  0  0  0  0
   -7.1339   -0.1652   -0.5429 H   0  0  0  0  0  0  0  0  0  0  0  0
   -5.9269   -0.4884   -1.7929 H   0  0  0  0  0  0  0  0  0  0  0  0
    4.9346    1.6110   -0.7989 H   0  0  0  0  0  0  0  0  0  0  0  0
    4.5479    0.3753   -2.0321 H   0  0  0  0  0  0  0  0  0  0  0  0
   -6.8397   -2.3822    0.3870 H   0  0  0  0  0  0  0  0  0  0  0  0
   -5.6136   -2.7818   -0.8359 H   0  0  0  0  0  0  0  0  0  0  0  0
   -5.2491   -2.9264    0.8975 H   0  0  0  0  0  0  0  0  0  0  0  0
    6.8020    1.3438   -2.3795 H   0  0  0  0  0  0  0  0  0  0  0  0
    6.9237   -0.3770   -1.9743 H   0  0  0  0  0  0  0  0  0  0  0  0
    7.2861    0.8454   -0.7492 H   0  0  0  0  0  0  0  0  0  0  0  0
  1  3  2  0  0  0  0
  1  4  2  0  0  0  0
  1  5  1  0  0  0  0
  1 19  1  0  0  0  0
  2 16  2  0  0  0  0
  5 12  1  0  0  0  0
  5 13  1  0  0  0  0
  6  9  1  0  0  0  0
  6 16  1  0  0  0  0
  6 38  1  0  0  0  0
  7 15  1  0  0  0  0
  7 18  1  0  0  0  0
  7 20  1  0  0  0  0
  8 10  1  0  0  0  0
  8 11  1  0  0  0  0
  8 16  1  0  0  0  0
  8 22  1  0  0  0  0
  9 14  1  0  0  0  0
  9 15  1  0  0  0  0
  9 23  1  0  0  0  0
 10 13  1  0  0  0  0
 10 24  1  0  0  0  0
 10 25  1  0  0  0  0
 11 12  1  0  0  0  0
 11 26  1  0  0  0  0
 11 27  1  0  0  0  0
 12 30  1  0  0  0  0
 12 31  1  0  0  0  0
 13 28  1  0  0  0  0
 13 29  1  0  0  0  0
 14 17  1  0  0  0  0
 14 32  1  0  0  0  0
 14 33  1  0  0  0  0
 15 34  1  0  0  0  0
 15 35  1  0  0  0  0
 17 18  1  0  0  0  0
 17 36  1  0  0  0  0
 17 37  1  0  0  0  0
 18 39  1  0  0  0  0
 18 40  1  0  0  0  0
 19 21  1  0  0  0  0
 19 41  1  0  0  0  0
 19 42  1  0  0  0  0
 20 43  1  0  0  0  0
 20 44  1  0  0  0  0
 20 45  1  0  0  0  0
 21 46  1  0  0  0  0
 21 47  1  0  0  0  0
 21 48  1  0  0  0  0
M  END
> <PUBCHEM_COMPOUND_CID>
51091001

> <PUBCHEM_CONFORMER_RMSD>
0.8

> <PUBCHEM_CONFORMER_DIVERSEORDER>
3
179
62
247
200
154
101
204
233
109
157
50
181
173
164
137
27
75
108
76
208
95
223
59
180
45
211
151
217
40
205
116
195
48
96
105
33
175
119
193
235
15
159
191
20
11
150
230
61
60
13
78
121
153
232
81
132
139
237
160
57
46
12
126
152
128
198
83
241
183
32
156
163
74
220
41
206
98
89
250
176
26
245
145
174
90
143
213
249
91
99
236
80
35
248
182
148
189
149
129
201
243
66
97
214
202
118
172
73
17
177
130
197
82
87
36
161
231
53
227
186
123
135
209
158
117
51
10
25
107
196
111
239
114
171
14
225
85
113
58
110
47
178
146
169
199
44
203
170
184
56
242
125
86
238
54
166
37
31
22
127
104
155
222
194
147
16
88
244
28
246
2
142
140
21
251
23
131
185
4
55
229
218
144
224
234
68
100
190
124
5
187
133
18
215
38
165
70
106
210
138
134
65
39
69
7
115
42
112
207
24
192
8
212
63
103
162
29
188
30
72
1
6
221
216
226
219
93
77
43
84
71
34
67
122
52
136
102
92
141
168
240
167
94
120
79
19
228
49
64
9

> <PUBCHEM_MMFF94_PARTIAL_CHARGES>
17
1 1.33
12 0.36
13 0.36
15 0.27
16 0.57
18 0.27
19 0.11
2 -0.57
20 0.27
3 -0.65
38 0.37
4 -0.65
5 -0.85
6 -0.73
7 -0.81
8 0.06
9 0.3

> <PUBCHEM_EFFECTIVE_ROTOR_COUNT>
7.4

> <PUBCHEM_PHARMACOPHORE_FEATURES>
7
1 2 acceptor
1 3 acceptor
1 4 acceptor
1 6 donor
1 7 cation
6 5 8 10 11 12 13 rings
6 7 9 14 15 17 18 rings

> <PUBCHEM_HEAVY_ATOM_COUNT>
21

> <PUBCHEM_ATOM_DEF_STEREO_COUNT>
0

> <PUBCHEM_ATOM_UDEF_STEREO_COUNT>
1

> <PUBCHEM_BOND_DEF_STEREO_COUNT>
0

> <PUBCHEM_BOND_UDEF_STEREO_COUNT>
0

> <PUBCHEM_ISOTOPIC_ATOM_COUNT>
0

> <PUBCHEM_COMPONENT_COUNT>
1

> <PUBCHEM_CACTVS_TAUTO_COUNT>
2

> <PUBCHEM_CONFORMER_ID>
030B963900000003

> <PUBCHEM_MMFF94_ENERGY>
22.3808

> <PUBCHEM_FEATURE_SELFOVERLAP>
35.537

> <PUBCHEM_SHAPE_MULTIPOLES>
403.47
17.63
1.6
1.27
0.16
0.55
-0.17
2.53
5.84
-1.63
0.15
1.19
-0.3
0.43

> <PUBCHEM_SHAPE_SELFOVERLAP>
793.549

> <PUBCHEM_SHAPE_VOLUME>
242.7

> <PUBCHEM_COORDINATE_TYPE>
2
5
10

$$$$

