10713
  -OEChem-06261204522D

 55 57  0     1  0  0  0  0  0999 V2000
    8.6594   -0.2504    0.0000 Cl  0  0  0  0  0  0  0  0  0  0  0  0
   10.4030    2.7429    0.0000 Cl  0  0  0  0  0  0  0  0  0  0  0  0
   15.5875   -0.2771    0.0000 O   0  0  0  0  0  0  0  0  0  0  0  0
   12.1196   -1.2637    0.0000 O   0  0  0  0  0  0  0  0  0  0  0  0
   14.7273    1.2262    0.0000 O   0  0  0  0  0  0  0  0  0  0  0  0
   15.5759   -3.2771    0.0000 O   0  0  0  0  0  0  0  0  0  0  0  0
   13.8439   -3.2704    0.0000 O   0  0  0  0  0  0  0  0  0  0  0  0
    8.6671    1.7496    0.0000 N   0  0  3  0  0  0  0  0  0  0  0  0
   12.9914    0.2329    0.0000 N   0  0  0  0  0  0  0  0  0  0  0  0
    6.0290    1.2424    0.0000 N   0  0  0  0  0  0  0  0  0  0  0  0
    6.0290    3.3117    0.0000 N   0  0  0  0  0  0  0  0  0  0  0  0
    4.2690    3.2771    0.0000 N   0  0  0  0  0  0  0  0  0  0  0  0
    3.4030    1.7771    0.0000 N   0  0  0  0  0  0  0  0  0  0  0  0
    4.2690    0.2771    0.0000 N   0  0  0  0  0  0  0  0  0  0  0  0
    2.5369    3.2771    0.0000 N   0  0  0  0  0  0  0  0  0  0  0  0
   13.8555   -0.2704    0.0000 C   0  0  1  0  0  0  0  0  0  0  0  0
   13.8516   -1.2704    0.0000 C   0  0  0  0  0  0  0  0  0  0  0  0
    9.5312    1.2462    0.0000 C   0  0  0  0  0  0  0  0  0  0  0  0
    7.7991    1.2529    0.0000 C   0  0  0  0  0  0  0  0  0  0  0  0
   14.7157   -1.7738    0.0000 C   0  0  0  0  0  0  0  0  0  0  0  0
   11.2593    0.2396    0.0000 C   0  0  0  0  0  0  0  0  0  0  0  0
   12.1234   -0.2638    0.0000 C   0  0  0  0  0  0  0  0  0  0  0  0
    9.5273    0.2463    0.0000 C   0  0  0  0  0  0  0  0  0  0  0  0
   10.3991    1.7429    0.0000 C   0  0  0  0  0  0  0  0  0  0  0  0
   10.3914   -0.2571    0.0000 C   0  0  0  0  0  0  0  0  0  0  0  0
   11.2632    1.2396    0.0000 C   0  0  0  0  0  0  0  0  0  0  0  0
    6.9350    1.7563    0.0000 C   0  0  0  0  0  0  0  0  0  0  0  0
   14.7234    0.2262    0.0000 C   0  0  0  0  0  0  0  0  0  0  0  0
    8.6709    2.7496    0.0000 C   0  0  0  0  0  0  0  0  0  0  0  0
   14.7118   -2.7738    0.0000 C   0  0  0  0  0  0  0  0  0  0  0  0
    6.9350    2.7979    0.0000 C   0  0  0  0  0  0  0  0  0  0  0  0
    5.1350    1.7771    0.0000 C   0  0  0  0  0  0  0  0  0  0  0  0
    5.1350    2.7771    0.0000 C   0  0  0  0  0  0  0  0  0  0  0  0
    4.2690    1.2771    0.0000 C   0  0  0  0  0  0  0  0  0  0  0  0
    3.4030    2.7771    0.0000 C   0  0  0  0  0  0  0  0  0  0  0  0
   13.8579    0.3496    0.0000 H   0  0  0  0  0  0  0  0  0  0  0  0
   13.2414   -1.1604    0.0000 H   0  0  0  0  0  0  0  0  0  0  0  0
   13.6373   -1.8522    0.0000 H   0  0  0  0  0  0  0  0  0  0  0  0
    7.3988    0.7795    0.0000 H   0  0  0  0  0  0  0  0  0  0  0  0
    8.1958    0.7764    0.0000 H   0  0  0  0  0  0  0  0  0  0  0  0
   12.9938    0.8529    0.0000 H   0  0  0  0  0  0  0  0  0  0  0  0
   15.3259   -1.8838    0.0000 H   0  0  0  0  0  0  0  0  0  0  0  0
   14.9300   -1.1920    0.0000 H   0  0  0  0  0  0  0  0  0  0  0  0
   10.3890   -0.8771    0.0000 H   0  0  0  0  0  0  0  0  0  0  0  0
   11.8013    1.5475    0.0000 H   0  0  0  0  0  0  0  0  0  0  0  0
    9.2909    2.7472    0.0000 H   0  0  0  0  0  0  0  0  0  0  0  0
    8.6733    3.3696    0.0000 H   0  0  0  0  0  0  0  0  0  0  0  0
    8.0509    2.7520    0.0000 H   0  0  0  0  0  0  0  0  0  0  0  0
    7.4708    3.1100    0.0000 H   0  0  0  0  0  0  0  0  0  0  0  0
   16.1256    0.0308    0.0000 H   0  0  0  0  0  0  0  0  0  0  0  0
   15.5735   -3.8971    0.0000 H   0  0  0  0  0  0  0  0  0  0  0  0
    3.7320   -0.0329    0.0000 H   0  0  0  0  0  0  0  0  0  0  0  0
    4.8059   -0.0329    0.0000 H   0  0  0  0  0  0  0  0  0  0  0  0
    2.5369    3.8971    0.0000 H   0  0  0  0  0  0  0  0  0  0  0  0
    2.0000    2.9671    0.0000 H   0  0  0  0  0  0  0  0  0  0  0  0
  1 23  1  0  0  0  0
  2 24  1  0  0  0  0
  3 28  1  0  0  0  0
  3 50  1  0  0  0  0
  4 22  2  0  0  0  0
  5 28  2  0  0  0  0
  6 30  1  0  0  0  0
  6 51  1  0  0  0  0
  7 30  2  0  0  0  0
  8 18  1  0  0  0  0
  8 19  1  0  0  0  0
  8 29  1  0  0  0  0
 16  9  1  6  0  0  0
  9 22  1  0  0  0  0
  9 41  1  0  0  0  0
 10 27  1  0  0  0  0
 10 32  2  0  0  0  0
 11 31  1  0  0  0  0
 11 33  2  0  0  0  0
 12 33  1  0  0  0  0
 12 35  2  0  0  0  0
 13 34  2  0  0  0  0
 13 35  1  0  0  0  0
 14 34  1  0  0  0  0
 14 52  1  0  0  0  0
 14 53  1  0  0  0  0
 15 35  1  0  0  0  0
 15 54  1  0  0  0  0
 15 55  1  0  0  0  0
 16 17  1  0  0  0  0
 16 28  1  0  0  0  0
 16 36  1  0  0  0  0
 17 20  1  0  0  0  0
 17 37  1  0  0  0  0
 17 38  1  0  0  0  0
 18 23  2  0  0  0  0
 18 24  1  0  0  0  0
 19 27  1  0  0  0  0
 19 39  1  0  0  0  0
 19 40  1  0  0  0  0
 20 30  1  0  0  0  0
 20 42  1  0  0  0  0
 20 43  1  0  0  0  0
 21 22  1  0  0  0  0
 21 25  2  0  0  0  0
 21 26  1  0  0  0  0
 23 25  1  0  0  0  0
 24 26  2  0  0  0  0
 25 44  1  0  0  0  0
 26 45  1  0  0  0  0
 27 31  2  0  0  0  0
 29 46  1  0  0  0  0
 29 47  1  0  0  0  0
 29 48  1  0  0  0  0
 31 49  1  0  0  0  0
 32 33  1  0  0  0  0
 32 34  1  0  0  0  0
M  END
> <PUBCHEM_COMPOUND_CID>
10713

> <PUBCHEM_COMPOUND_CANONICALIZED>
1

> <PUBCHEM_CACTVS_COMPLEXITY>
770

> <PUBCHEM_CACTVS_HBOND_ACCEPTOR>
12

> <PUBCHEM_CACTVS_HBOND_DONOR>
5

> <PUBCHEM_CACTVS_ROTATABLE_BOND>
9

> <PUBCHEM_CACTVS_SUBSKEYS>
AAADceB7+AAGAAAAAAAAAAAAAAAAAAAAAAA8WIAAAAAAAACx/AAAHgIQCAAADCrBnyQ/+L/IEgCoAzf3fACCgC01F6AB2KG4dtiKaHLB3/HUZQhslgLYyae8rwCeCAAAIACAABAQAABAAQAAIAAAAAAAAA==

> <PUBCHEM_IUPAC_OPENEYE_NAME>
(2S)-2-[[3,5-dichloro-4-[(2,4-diaminopteridin-6-yl)methyl-methyl-amino]benzoyl]amino]pentanedioic acid

> <PUBCHEM_IUPAC_CAS_NAME>
(2S)-2-[[[3,5-dichloro-4-[(2,4-diamino-6-pteridinyl)methyl-methylamino]phenyl]-oxomethyl]amino]pentanedioic acid

> <PUBCHEM_IUPAC_NAME>
(2S)-2-[[3,5-dichloro-4-[(2,4-diaminopteridin-6-yl)methyl-methylamino]benzoyl]amino]pentanedioic acid

> <PUBCHEM_IUPAC_SYSTEMATIC_NAME>
(2S)-2-[[4-[[2,4-bis(azanyl)pteridin-6-yl]methyl-methyl-amino]-3,5-bis(chloranyl)phenyl]carbonylamino]pentanedioic acid

> <PUBCHEM_IUPAC_TRADITIONAL_NAME>
(2S)-2-[[3,5-dichloro-4-[(2,4-diaminopteridin-6-yl)methyl-methyl-amino]benzoyl]amino]glutaric acid

> <PUBCHEM_IUPAC_INCHI>
InChI=1S/C20H20Cl2N8O5/c1-30(7-9-6-25-17-14(26-9)16(23)28-20(24)29-17)15-10(21)4-8(5-11(15)22)18(33)27-12(19(34)35)2-3-13(31)32/h4-6,12H,2-3,7H2,1H3,(H,27,33)(H,31,32)(H,34,35)(H4,23,24,25,28,29)/t12-/m0/s1

> <PUBCHEM_IUPAC_INCHIKEY>
MCEHFIXEKNKSRW-LBPRGKRZSA-N

> <PUBCHEM_XLOGP3>
-0.1

> <PUBCHEM_EXACT_MASS>
522.093371

> <PUBCHEM_MOLECULAR_FORMULA>
C20H20Cl2N8O5

> <PUBCHEM_MOLECULAR_WEIGHT>
523.3294

> <PUBCHEM_OPENEYE_CAN_SMILES>
CN(CC1=CN=C2C(=N1)C(=NC(=N2)N)N)C3=C(C=C(C=C3Cl)C(=O)NC(CCC(=O)O)C(=O)O)Cl

> <PUBCHEM_OPENEYE_ISO_SMILES>
CN(CC1=CN=C2C(=N1)C(=NC(=N2)N)N)C3=C(C=C(C=C3Cl)C(=O)N[C@@H](CCC(=O)O)C(=O)O)Cl

> <PUBCHEM_CACTVS_TPSA>
211

> <PUBCHEM_MONOISOTOPIC_WEIGHT>
522.093371

> <PUBCHEM_TOTAL_CHARGE>
0

> <PUBCHEM_HEAVY_ATOM_COUNT>
35

> <PUBCHEM_ATOM_DEF_STEREO_COUNT>
1

> <PUBCHEM_ATOM_UDEF_STEREO_COUNT>
0

> <PUBCHEM_BOND_DEF_STEREO_COUNT>
0

> <PUBCHEM_BOND_UDEF_STEREO_COUNT>
0

> <PUBCHEM_ISOTOPIC_ATOM_COUNT>
0

> <PUBCHEM_COMPONENT_COUNT>
1

> <PUBCHEM_CACTVS_TAUTO_COUNT>
24

> <PUBCHEM_COORDINATE_TYPE>
1
5
255

> <PUBCHEM_BONDANNOTATIONS>
10  27  8
10  32  8
11  31  8
11  33  8
12  33  8
12  35  8
13  34  8
13  35  8
18  23  8
18  24  8
21  25  8
21  26  8
23  25  8
24  26  8
27  31  8
32  33  8
32  34  8
16  9  6

$$$$

