17396268
  -OEChem-06241222552D

 41 42  0     1  0  0  0  0  0999 V2000
    6.3301    5.2500    0.0000 F   0  0  0  0  0  0  0  0  0  0  0  0
    6.3301    1.2500    0.0000 O   0  0  0  0  0  0  0  0  0  0  0  0
    2.8660   -3.7500    0.0000 O   0  0  0  0  0  0  0  0  0  0  0  0
    4.5981   -4.7500    0.0000 O   0  0  0  0  0  0  0  0  0  0  0  0
    6.3301   -0.7500    0.0000 O   0  0  0  0  0  0  0  0  0  0  0  0
    4.5981   -0.7500    0.0000 N   0  0  0  0  0  0  0  0  0  0  0  0
    5.4641    0.7500    0.0000 C   0  0  3  0  0  0  0  0  0  0  0  0
    4.5981   -1.7500    0.0000 C   0  0  0  0  0  0  0  0  0  0  0  0
    5.4641   -0.2500    0.0000 C   0  0  0  0  0  0  0  0  0  0  0  0
    4.5981    1.2500    0.0000 C   0  0  0  0  0  0  0  0  0  0  0  0
    3.7320   -2.2500    0.0000 C   0  0  0  0  0  0  0  0  0  0  0  0
    5.4641   -2.2500    0.0000 C   0  0  0  0  0  0  0  0  0  0  0  0
    3.7320   -3.2500    0.0000 C   0  0  0  0  0  0  0  0  0  0  0  0
    4.5981   -3.7500    0.0000 C   0  0  0  0  0  0  0  0  0  0  0  0
    6.3301    2.2500    0.0000 C   0  0  0  0  0  0  0  0  0  0  0  0
    5.4641   -3.2500    0.0000 C   0  0  0  0  0  0  0  0  0  0  0  0
    5.4641    2.7500    0.0000 C   0  0  0  0  0  0  0  0  0  0  0  0
    7.1962    2.7500    0.0000 C   0  0  0  0  0  0  0  0  0  0  0  0
    5.4641    3.7500    0.0000 C   0  0  0  0  0  0  0  0  0  0  0  0
    7.1962    3.7500    0.0000 C   0  0  0  0  0  0  0  0  0  0  0  0
    6.3301    4.2500    0.0000 C   0  0  0  0  0  0  0  0  0  0  0  0
    2.0000   -3.2500    0.0000 C   0  0  0  0  0  0  0  0  0  0  0  0
    5.4641   -5.2500    0.0000 C   0  0  0  0  0  0  0  0  0  0  0  0
    5.4641    1.3700    0.0000 H   0  0  0  0  0  0  0  0  0  0  0  0
    4.0611   -0.4400    0.0000 H   0  0  0  0  0  0  0  0  0  0  0  0
    4.9081    1.7869    0.0000 H   0  0  0  0  0  0  0  0  0  0  0  0
    4.0611    1.5600    0.0000 H   0  0  0  0  0  0  0  0  0  0  0  0
    4.2881    0.7131    0.0000 H   0  0  0  0  0  0  0  0  0  0  0  0
    3.1951   -1.9400    0.0000 H   0  0  0  0  0  0  0  0  0  0  0  0
    6.0010   -1.9400    0.0000 H   0  0  0  0  0  0  0  0  0  0  0  0
    6.0010   -3.5600    0.0000 H   0  0  0  0  0  0  0  0  0  0  0  0
    4.9272    2.4400    0.0000 H   0  0  0  0  0  0  0  0  0  0  0  0
    7.7331    2.4400    0.0000 H   0  0  0  0  0  0  0  0  0  0  0  0
    4.9272    4.0600    0.0000 H   0  0  0  0  0  0  0  0  0  0  0  0
    7.7331    4.0600    0.0000 H   0  0  0  0  0  0  0  0  0  0  0  0
    2.3100   -2.7131    0.0000 H   0  0  0  0  0  0  0  0  0  0  0  0
    1.4631   -2.9400    0.0000 H   0  0  0  0  0  0  0  0  0  0  0  0
    1.6900   -3.7869    0.0000 H   0  0  0  0  0  0  0  0  0  0  0  0
    5.1541   -5.7869    0.0000 H   0  0  0  0  0  0  0  0  0  0  0  0
    6.0010   -5.5600    0.0000 H   0  0  0  0  0  0  0  0  0  0  0  0
    5.7741   -4.7131    0.0000 H   0  0  0  0  0  0  0  0  0  0  0  0
  1 21  1  0  0  0  0
  2  7  1  0  0  0  0
  2 15  1  0  0  0  0
  3 13  1  0  0  0  0
  3 22  1  0  0  0  0
  4 14  1  0  0  0  0
  4 23  1  0  0  0  0
  5  9  2  0  0  0  0
  6  8  1  0  0  0  0
  6  9  1  0  0  0  0
  6 25  1  0  0  0  0
  7  9  1  0  0  0  0
  7 10  1  0  0  0  0
  7 24  1  0  0  0  0
  8 11  2  0  0  0  0
  8 12  1  0  0  0  0
 10 26  1  0  0  0  0
 10 27  1  0  0  0  0
 10 28  1  0  0  0  0
 11 13  1  0  0  0  0
 11 29  1  0  0  0  0
 12 16  2  0  0  0  0
 12 30  1  0  0  0  0
 13 14  2  0  0  0  0
 14 16  1  0  0  0  0
 15 17  2  0  0  0  0
 15 18  1  0  0  0  0
 16 31  1  0  0  0  0
 17 19  1  0  0  0  0
 17 32  1  0  0  0  0
 18 20  2  0  0  0  0
 18 33  1  0  0  0  0
 19 21  2  0  0  0  0
 19 34  1  0  0  0  0
 20 21  1  0  0  0  0
 20 35  1  0  0  0  0
 22 36  1  0  0  0  0
 22 37  1  0  0  0  0
 22 38  1  0  0  0  0
 23 39  1  0  0  0  0
 23 40  1  0  0  0  0
 23 41  1  0  0  0  0
M  END
> <PUBCHEM_COMPOUND_CID>
17396268

> <PUBCHEM_COMPOUND_CANONICALIZED>
1

> <PUBCHEM_CACTVS_COMPLEXITY>
374

> <PUBCHEM_CACTVS_HBOND_ACCEPTOR>
5

> <PUBCHEM_CACTVS_HBOND_DONOR>
1

> <PUBCHEM_CACTVS_ROTATABLE_BOND>
6

> <PUBCHEM_CACTVS_SUBSKEYS>
AAADceB6OQAAAAAAAAAAAAAAAAAAAAAAAAAwYAAAAAAAAAABQAAAHwAQAAAACByhkAoyxoLABACIACVSUAKCCAAhIgAIiAFG7IgPJiLEsZ+HOCrm1Bna6AewUAMAAEAAAgAAQAAAgAAEAACAAAAAAAAAAA==

> <PUBCHEM_IUPAC_OPENEYE_NAME>
N-(3,4-dimethoxyphenyl)-2-(4-fluorophenoxy)propanamide

> <PUBCHEM_IUPAC_CAS_NAME>
N-(3,4-dimethoxyphenyl)-2-(4-fluorophenoxy)propanamide

> <PUBCHEM_IUPAC_NAME>
N-(3,4-dimethoxyphenyl)-2-(4-fluorophenoxy)propanamide

> <PUBCHEM_IUPAC_SYSTEMATIC_NAME>
N-(3,4-dimethoxyphenyl)-2-(4-fluoranylphenoxy)propanamide

> <PUBCHEM_IUPAC_TRADITIONAL_NAME>
N-(3,4-dimethoxyphenyl)-2-(4-fluorophenoxy)propionamide

> <PUBCHEM_IUPAC_INCHI>
InChI=1S/C17H18FNO4/c1-11(23-14-7-4-12(18)5-8-14)17(20)19-13-6-9-15(21-2)16(10-13)22-3/h4-11H,1-3H3,(H,19,20)

> <PUBCHEM_IUPAC_INCHIKEY>
GOTIKFJCRDSXGW-UHFFFAOYSA-N

> <PUBCHEM_XLOGP3_AA>
3.2

> <PUBCHEM_EXACT_MASS>
319.121986

> <PUBCHEM_MOLECULAR_FORMULA>
C17H18FNO4

> <PUBCHEM_MOLECULAR_WEIGHT>
319.327523

> <PUBCHEM_OPENEYE_CAN_SMILES>
CC(C(=O)NC1=CC(=C(C=C1)OC)OC)OC2=CC=C(C=C2)F

> <PUBCHEM_OPENEYE_ISO_SMILES>
CC(C(=O)NC1=CC(=C(C=C1)OC)OC)OC2=CC=C(C=C2)F

> <PUBCHEM_CACTVS_TPSA>
56.8

> <PUBCHEM_MONOISOTOPIC_WEIGHT>
319.121986

> <PUBCHEM_TOTAL_CHARGE>
0

> <PUBCHEM_HEAVY_ATOM_COUNT>
23

> <PUBCHEM_ATOM_DEF_STEREO_COUNT>
0

> <PUBCHEM_ATOM_UDEF_STEREO_COUNT>
1

> <PUBCHEM_BOND_DEF_STEREO_COUNT>
0

> <PUBCHEM_BOND_UDEF_STEREO_COUNT>
0

> <PUBCHEM_ISOTOPIC_ATOM_COUNT>
0

> <PUBCHEM_COMPONENT_COUNT>
1

> <PUBCHEM_CACTVS_TAUTO_COUNT>
3

> <PUBCHEM_COORDINATE_TYPE>
1
5
255

> <PUBCHEM_BONDANNOTATIONS>
11  13  8
12  16  8
13  14  8
14  16  8
15  17  8
15  18  8
17  19  8
18  20  8
19  21  8
20  21  8
7  10  3
8  11  8
8  12  8

$$$$

