47205648
  -OEChem-06241222593D

 37 37  0     0  0  0  0  0  0999 V2000
    4.4281    1.0314    0.5522 O   0  0  0  0  0  0  0  0  0  0  0  0
   -0.4336   -0.6696   -1.4109 O   0  0  0  0  0  0  0  0  0  0  0  0
   -2.5249    0.7225    1.1722 O   0  0  0  0  0  0  0  0  0  0  0  0
    1.0993   -1.7947   -0.0817 N   0  0  0  0  0  0  0  0  0  0  0  0
   -2.5697   -1.3047    0.0421 N   0  0  0  0  0  0  0  0  0  0  0  0
    4.0851   -0.2868    0.2764 N   0  0  0  0  0  0  0  0  0  0  0  0
    2.2696   -1.4654   -0.8859 C   0  0  0  0  0  0  0  0  0  0  0  0
   -1.2985   -1.7911    0.5231 C   0  0  0  0  0  0  0  0  0  0  0  0
   -0.1876   -1.3595   -0.4179 C   0  0  0  0  0  0  0  0  0  0  0  0
   -4.4270    0.1981   -0.2310 C   0  0  0  0  0  0  0  0  0  0  0  0
    2.9422   -0.2099   -0.4112 C   0  0  0  0  0  0  0  0  0  0  0  0
   -5.0054    1.5527    0.1671 C   0  0  0  0  0  0  0  0  0  0  0  0
   -3.0797   -0.0697    0.4153 C   0  0  0  0  0  0  0  0  0  0  0  0
    1.3653   -2.6114    1.1000 C   0  0  0  0  0  0  0  0  0  0  0  0
    2.5200    1.1176   -0.5981 C   0  0  0  0  0  0  0  0  0  0  0  0
    3.4885    1.8582    0.0265 C   0  0  0  0  0  0  0  0  0  0  0  0
   -6.3681    1.7849   -0.4650 C   0  0  0  0  0  0  0  0  0  0  0  0
    3.6962    3.2974    0.2266 C   0  0  0  0  0  0  0  0  0  0  0  0
    2.9610   -2.3162   -0.8846 H   0  0  0  0  0  0  0  0  0  0  0  0
    1.9509   -1.3150   -1.9245 H   0  0  0  0  0  0  0  0  0  0  0  0
   -1.3659   -2.8824    0.5465 H   0  0  0  0  0  0  0  0  0  0  0  0
   -1.1183   -1.3889    1.5244 H   0  0  0  0  0  0  0  0  0  0  0  0
   -4.3017    0.1496   -1.3194 H   0  0  0  0  0  0  0  0  0  0  0  0
   -5.1132   -0.6042    0.0657 H   0  0  0  0  0  0  0  0  0  0  0  0
   -5.0992    1.6139    1.2580 H   0  0  0  0  0  0  0  0  0  0  0  0
   -4.3224    2.3547   -0.1376 H   0  0  0  0  0  0  0  0  0  0  0  0
   -3.0919   -1.8872   -0.6062 H   0  0  0  0  0  0  0  0  0  0  0  0
    1.8031   -3.5594    0.7717 H   0  0  0  0  0  0  0  0  0  0  0  0
    0.4887   -2.8369    1.7047 H   0  0  0  0  0  0  0  0  0  0  0  0
    2.0863   -2.0864    1.7340 H   0  0  0  0  0  0  0  0  0  0  0  0
    1.6432    1.4846   -1.1108 H   0  0  0  0  0  0  0  0  0  0  0  0
   -7.0831    1.0187   -0.1485 H   0  0  0  0  0  0  0  0  0  0  0  0
   -6.7627    2.7613   -0.1672 H   0  0  0  0  0  0  0  0  0  0  0  0
   -6.3022    1.7637   -1.5575 H   0  0  0  0  0  0  0  0  0  0  0  0
    3.7253    3.5374    1.2939 H   0  0  0  0  0  0  0  0  0  0  0  0
    4.6414    3.6162   -0.2236 H   0  0  0  0  0  0  0  0  0  0  0  0
    2.8901    3.8803   -0.2297 H   0  0  0  0  0  0  0  0  0  0  0  0
  1  6  1  0  0  0  0
  1 16  1  0  0  0  0
  2  9  2  0  0  0  0
  3 13  2  0  0  0  0
  4  7  1  0  0  0  0
  4  9  1  0  0  0  0
  4 14  1  0  0  0  0
  5  8  1  0  0  0  0
  5 13  1  0  0  0  0
  5 27  1  0  0  0  0
  6 11  2  0  0  0  0
  7 11  1  0  0  0  0
  7 19  1  0  0  0  0
  7 20  1  0  0  0  0
  8  9  1  0  0  0  0
  8 21  1  0  0  0  0
  8 22  1  0  0  0  0
 10 12  1  0  0  0  0
 10 13  1  0  0  0  0
 10 23  1  0  0  0  0
 10 24  1  0  0  0  0
 11 15  1  0  0  0  0
 12 17  1  0  0  0  0
 12 25  1  0  0  0  0
 12 26  1  0  0  0  0
 14 28  1  0  0  0  0
 14 29  1  0  0  0  0
 14 30  1  0  0  0  0
 15 16  2  0  0  0  0
 15 31  1  0  0  0  0
 16 18  1  0  0  0  0
 17 32  1  0  0  0  0
 17 33  1  0  0  0  0
 17 34  1  0  0  0  0
 18 35  1  0  0  0  0
 18 36  1  0  0  0  0
 18 37  1  0  0  0  0
M  END
> <PUBCHEM_COMPOUND_CID>
47205648

> <PUBCHEM_CONFORMER_RMSD>
1.2

> <PUBCHEM_CONFORMER_DIVERSEORDER>
1
19
3
45
61
49
64
31
60
46
68
38
53
58
40
43
35
56
6
63
66
2
42
9
51
55
21
13
17
8
62
18
52
54
26
25
65
44
50
67
24
11
27
4
32
30
41
72
16
39
37
34
57
28
29
22
23
15
71
59
36
70
20
48
69
7
12
33
47
10
14
5

> <PUBCHEM_MMFF94_PARTIAL_CHARGES>
18
1 -0.02
10 0.06
11 0.11
13 0.57
14 0.3
15 -0.15
16 -0.04
18 0.18
2 -0.57
27 0.37
3 -0.57
31 0.15
4 -0.66
5 -0.73
6 -0.41
7 0.48
8 0.36
9 0.57

> <PUBCHEM_EFFECTIVE_ROTOR_COUNT>
8

> <PUBCHEM_PHARMACOPHORE_FEATURES>
6
1 17 hydrophobe
1 2 acceptor
1 3 acceptor
1 5 donor
1 6 acceptor
5 1 6 11 15 16 rings

> <PUBCHEM_HEAVY_ATOM_COUNT>
18

> <PUBCHEM_ATOM_DEF_STEREO_COUNT>
0

> <PUBCHEM_ATOM_UDEF_STEREO_COUNT>
0

> <PUBCHEM_BOND_DEF_STEREO_COUNT>
0

> <PUBCHEM_BOND_UDEF_STEREO_COUNT>
0

> <PUBCHEM_ISOTOPIC_ATOM_COUNT>
0

> <PUBCHEM_COMPONENT_COUNT>
1

> <PUBCHEM_CACTVS_TAUTO_COUNT>
2

> <PUBCHEM_CONFORMER_ID>
02D04D1000000001

> <PUBCHEM_MMFF94_ENERGY>
21.921

> <PUBCHEM_FEATURE_SELFOVERLAP>
30.446

> <PUBCHEM_SHAPE_FINGERPRINT>
10498660 4 18260541191246215833
11089746 13 18339927112109312535
122479 349 18267020557824508334
12596602 18 14260766426734051317
12633257 1 15769770230762107317
12670546 177 4895261633693973194
12769317 202 18335427867352030721
13551218 46 10231747895512414233
13878862 14 17986694742684760365
13955234 65 18198057195808562875
13965767 371 17917161528301319310
14178342 30 17489014968942610859
1420 369 9727629506035835717
14251710 61 9727642695442512789
14251732 16 18410852149905829915
14251764 38 18196934366417818317
14251764 75 18265601113914802201
14576447 43 8862947186632432064
14774955 27 18408888438648818557
14848178 96 18408882919209895113
15238133 3 18270961238080355804
15342816 4 6411026318011054870
17810953 82 18412541015764990333
17834072 32 18338514140635471929
17959699 21 18335139830229488689
1813 80 6483351119086645363
193927 3 11240011056749842880
20157964 124 18337956792004784829
20621476 13 18336264539866557112
20715895 44 18338519741663365545
20871999 31 6699542588276138235
212916 134 16845568743128407369
21315763 76 18333735740632251649
21452121 103 18341054115516729883
21475661 188 18412263913212309564
21713013 43 7276292512395688096
22950370 63 9295292759349662191
23227448 37 18336264553214890279
235170 7 14056991750145315289
23559900 14 18263077871983159231
270888 7 18337674092662415724
2838139 119 18409174333226141125
33382 64 10015576229662431093
3472631 163 18334295401167751261
351380 180 18408604777016672429
465052 167 10375864199762633745
474 4 18410291406405146755
5104073 3 18202004304595847539
5312510 48 18336547218135737137
56616090 13 18410295787588312811
6328613 192 18270109108068721772
633830 44 18410577249669858286
94968 8 9007061257937637334

> <PUBCHEM_SHAPE_MULTIPOLES>
337.88
11.64
3.05
0.96
14.15
0.95
0.03
10.38
-0.01
-2.35
-0.51
-0.05
-0.23
0.41

> <PUBCHEM_SHAPE_SELFOVERLAP>
670.983

> <PUBCHEM_SHAPE_VOLUME>
202

> <PUBCHEM_COORDINATE_TYPE>
2
5
10

$$$$

