13310
  -OEChem-06261208503D

 44 46  0     1  0  0  0  0  0999 V2000
   -2.6662   -1.0585    1.6616 S   0  0  0  0  0  0  0  0  0  0  0  0
    4.4609    1.5715   -0.0219 N   0  0  0  0  0  0  0  0  0  0  0  0
   -0.3408    0.3637   -0.5416 C   0  0  1  0  0  0  0  0  0  0  0  0
    0.6849    1.1886    0.2543 C   0  0  0  0  0  0  0  0  0  0  0  0
   -0.0693   -1.1305   -0.4757 C   0  0  0  0  0  0  0  0  0  0  0  0
    2.0945    0.9352   -0.2620 C   0  0  0  0  0  0  0  0  0  0  0  0
   -1.7681    0.8639   -0.3190 C   0  0  0  0  0  0  0  0  0  0  0  0
   -0.2725   -1.9017    0.6799 C   0  0  0  0  0  0  0  0  0  0  0  0
    3.1285    1.7816    0.4731 C   0  0  0  0  0  0  0  0  0  0  0  0
   -2.7485    0.3539    0.5573 C   0  0  0  0  0  0  0  0  0  0  0  0
   -0.8976   -1.3166    1.9078 C   0  0  0  0  0  0  0  0  0  0  0  0
    0.4632   -1.7647   -1.6178 C   0  0  0  0  0  0  0  0  0  0  0  0
   -2.1088    2.0088   -1.0898 C   0  0  0  0  0  0  0  0  0  0  0  0
    0.0535   -3.2714    0.6701 C   0  0  0  0  0  0  0  0  0  0  0  0
   -4.0166    0.9835    0.6022 C   0  0  0  0  0  0  0  0  0  0  0  0
    0.7832   -3.1225   -1.6152 C   0  0  0  0  0  0  0  0  0  0  0  0
   -3.3605    2.6171   -1.0230 C   0  0  0  0  0  0  0  0  0  0  0  0
    0.5800   -3.8768   -0.4683 C   0  0  0  0  0  0  0  0  0  0  0  0
   -4.3200    2.0995   -0.1745 C   0  0  0  0  0  0  0  0  0  0  0  0
    4.9005    0.1834    0.1927 C   0  0  0  0  0  0  0  0  0  0  0  0
    5.4198    2.4919    0.6097 C   0  0  0  0  0  0  0  0  0  0  0  0
   -0.1493    0.6166   -1.5969 H   0  0  0  0  0  0  0  0  0  0  0  0
    0.4639    2.2587    0.1433 H   0  0  0  0  0  0  0  0  0  0  0  0
    0.6462    0.9945    1.3277 H   0  0  0  0  0  0  0  0  0  0  0  0
    2.3273   -0.1238   -0.1224 H   0  0  0  0  0  0  0  0  0  0  0  0
    2.1446    1.1476   -1.3376 H   0  0  0  0  0  0  0  0  0  0  0  0
    3.0681    1.5812    1.5515 H   0  0  0  0  0  0  0  0  0  0  0  0
    2.8515    2.8355    0.3382 H   0  0  0  0  0  0  0  0  0  0  0  0
   -0.7935   -2.0164    2.7456 H   0  0  0  0  0  0  0  0  0  0  0  0
   -0.4134   -0.4037    2.2502 H   0  0  0  0  0  0  0  0  0  0  0  0
    0.6440   -1.1976   -2.5287 H   0  0  0  0  0  0  0  0  0  0  0  0
   -1.3754    2.4457   -1.7672 H   0  0  0  0  0  0  0  0  0  0  0  0
   -0.1122   -3.8809    1.5557 H   0  0  0  0  0  0  0  0  0  0  0  0
   -4.8008    0.6082    1.2598 H   0  0  0  0  0  0  0  0  0  0  0  0
    1.1932   -3.5858   -2.5076 H   0  0  0  0  0  0  0  0  0  0  0  0
   -3.5776    3.4887   -1.6326 H   0  0  0  0  0  0  0  0  0  0  0  0
    0.8253   -4.9344   -0.4591 H   0  0  0  0  0  0  0  0  0  0  0  0
   -5.3018    2.5583   -0.1107 H   0  0  0  0  0  0  0  0  0  0  0  0
    4.3585   -0.5175   -0.4490 H   0  0  0  0  0  0  0  0  0  0  0  0
    4.7942   -0.1284    1.2380 H   0  0  0  0  0  0  0  0  0  0  0  0
    5.9550    0.0707   -0.0866 H   0  0  0  0  0  0  0  0  0  0  0  0
    6.4185    2.3634    0.1780 H   0  0  0  0  0  0  0  0  0  0  0  0
    5.4849    2.3370    1.6928 H   0  0  0  0  0  0  0  0  0  0  0  0
    5.1303    3.5324    0.4249 H   0  0  0  0  0  0  0  0  0  0  0  0
  1 10  1  0  0  0  0
  1 11  1  0  0  0  0
  2  9  1  0  0  0  0
  2 20  1  0  0  0  0
  2 21  1  0  0  0  0
  3  4  1  0  0  0  0
  3  5  1  0  0  0  0
  3  7  1  0  0  0  0
  3 22  1  0  0  0  0
  4  6  1  0  0  0  0
  4 23  1  0  0  0  0
  4 24  1  0  0  0  0
  5  8  1  0  0  0  0
  5 12  2  0  0  0  0
  6  9  1  0  0  0  0
  6 25  1  0  0  0  0
  6 26  1  0  0  0  0
  7 10  1  0  0  0  0
  7 13  2  0  0  0  0
  8 11  1  0  0  0  0
  8 14  2  0  0  0  0
  9 27  1  0  0  0  0
  9 28  1  0  0  0  0
 10 15  2  0  0  0  0
 11 29  1  0  0  0  0
 11 30  1  0  0  0  0
 12 16  1  0  0  0  0
 12 31  1  0  0  0  0
 13 17  1  0  0  0  0
 13 32  1  0  0  0  0
 14 18  1  0  0  0  0
 14 33  1  0  0  0  0
 15 19  1  0  0  0  0
 15 34  1  0  0  0  0
 16 18  2  0  0  0  0
 16 35  1  0  0  0  0
 17 19  2  0  0  0  0
 17 36  1  0  0  0  0
 18 37  1  0  0  0  0
 19 38  1  0  0  0  0
 20 39  1  0  0  0  0
 20 40  1  0  0  0  0
 20 41  1  0  0  0  0
 21 42  1  0  0  0  0
 21 43  1  0  0  0  0
 21 44  1  0  0  0  0
M  END
> <PUBCHEM_COMPOUND_CID>
13310

> <PUBCHEM_CONFORMER_RMSD>
0.8

> <PUBCHEM_CONFORMER_DIVERSEORDER>
5
1
20
11
10
4
15
13
3
18
12
2
6
19
16
17
9
14
8
7

> <PUBCHEM_MMFF94_PARTIAL_CHARGES>
27
1 -0.33
10 0.1
11 0.37
12 -0.15
13 -0.15
14 -0.15
15 -0.15
16 -0.15
17 -0.15
18 -0.15
19 -0.15
2 -0.81
20 0.27
21 0.27
3 0.29
31 0.15
32 0.15
33 0.15
34 0.15
35 0.15
36 0.15
37 0.15
38 0.15
5 -0.14
7 -0.14
8 -0.14
9 0.27

> <PUBCHEM_EFFECTIVE_ROTOR_COUNT>
4.6

> <PUBCHEM_PHARMACOPHORE_FEATURES>
4
1 2 cation
6 5 8 12 14 16 18 rings
6 7 10 13 15 17 19 rings
7 1 3 5 7 8 10 11 rings

> <PUBCHEM_HEAVY_ATOM_COUNT>
21

> <PUBCHEM_ATOM_DEF_STEREO_COUNT>
0

> <PUBCHEM_ATOM_UDEF_STEREO_COUNT>
1

> <PUBCHEM_BOND_DEF_STEREO_COUNT>
0

> <PUBCHEM_BOND_UDEF_STEREO_COUNT>
0

> <PUBCHEM_ISOTOPIC_ATOM_COUNT>
0

> <PUBCHEM_COMPONENT_COUNT>
1

> <PUBCHEM_CACTVS_TAUTO_COUNT>
1

> <PUBCHEM_CONFORMER_ID>
000033FE00000005

> <PUBCHEM_MMFF94_ENERGY>
68.9426

> <PUBCHEM_FEATURE_SELFOVERLAP>
20.309

> <PUBCHEM_SHAPE_FINGERPRINT>
10764073 3 17271463596784066050
107951 10 18060412521987269962
11101153 10 17115517238883058664
11578080 2 18191284152773003225
12592029 89 18335423529566664114
12707595 3 17690560110616620623
12788726 201 17977408048201538514
13004483 165 17471017977798091186
13681431 1 17611471121916755414
14251751 93 18335990787150548726
15042514 8 17981038618142266339
15230672 131 18342170082530540494
15664445 248 17323230893527058399
17980427 26 17697618923806365541
18915476 22 18189043364880976051
21033648 29 18261685778873008984
21120745 212 17402881233656055348
21524375 3 18409169883154465717
21731228 192 18411135809934366620
22182313 1 17916004932843675425
22224240 67 18335698304927364137
23419403 2 17975657831584616799
23559900 14 17836088144990104011
23598288 3 17984132665780509892
23728640 28 18266747878935421898
2748010 2 17985234531240320059
3298306 158 18338231669732549694
3380486 77 16893122311059909767
3729539 64 18118382172565455790
5265222 85 18268976615412966580
532947 4 18263359364571918190
6138700 20 18120935268666975342
633830 44 17532070834799900056
7364860 26 18122064470822841551
81228 2 17687768041959757321
9862522 239 18339360768888848242
9981440 41 18410858780412611081

> <PUBCHEM_SHAPE_MULTIPOLES>
431.04
8.01
4.31
1.46
7.9
3.37
-0.08
-10.21
-1.52
1.13
0.94
-0.6
0.81
1.91

> <PUBCHEM_SHAPE_SELFOVERLAP>
897.764

> <PUBCHEM_SHAPE_VOLUME>
244.4

> <PUBCHEM_COORDINATE_TYPE>
2
5
10

$$$$

