11442
  -OEChem-06261205402D

 48 49  0     1  0  0  0  0  0999 V2000
    3.7601    0.3522    0.0000 O   0  0  0  0  0  0  0  0  0  0  0  0
    5.4921    0.3522    0.0000 O   0  0  0  0  0  0  0  0  0  0  0  0
    4.8479   -2.9957    0.0000 O   0  0  0  0  0  0  0  0  0  0  0  0
    5.1261    2.7182    0.0000 C   0  0  0  0  0  0  0  0  0  0  0  0
    4.1261    2.7182    0.0000 C   0  0  3  0  0  0  0  0  0  0  0  0
    4.6261    1.8522    0.0000 C   0  0  3  0  0  0  0  0  0  0  0  0
    5.1261    3.7182    0.0000 C   0  0  0  0  0  0  0  0  0  0  0  0
    5.9921    2.2182    0.0000 C   0  0  0  0  0  0  0  0  0  0  0  0
    3.2601    3.2182    0.0000 C   0  0  0  0  0  0  0  0  0  0  0  0
    4.6261    0.8522    0.0000 C   0  0  0  0  0  0  0  0  0  0  0  0
    3.2601    4.2182    0.0000 C   0  0  0  0  0  0  0  0  0  0  0  0
    3.7601   -0.6478    0.0000 C   0  0  3  0  0  0  0  0  0  0  0  0
    2.3940    4.7182    0.0000 C   0  0  0  0  0  0  0  0  0  0  0  0
    4.1261    4.7182    0.0000 C   0  0  0  0  0  0  0  0  0  0  0  0
    4.5691   -1.2356    0.0000 C   0  0  0  0  0  0  0  0  0  0  0  0
    2.9511   -1.2356    0.0000 C   0  0  0  0  0  0  0  0  0  0  0  0
    3.2601   -2.1866    0.0000 C   0  0  0  0  0  0  0  0  0  0  0  0
    4.2601   -2.1866    0.0000 C   0  0  0  0  0  0  0  0  0  0  0  0
    2.0000   -0.9266    0.0000 C   0  0  0  0  0  0  0  0  0  0  0  0
    2.6723   -2.9957    0.0000 C   0  0  0  0  0  0  0  0  0  0  0  0
    3.0790   -3.9092    0.0000 C   0  0  0  0  0  0  0  0  0  0  0  0
    2.4912   -4.7182    0.0000 C   0  0  0  0  0  0  0  0  0  0  0  0
    4.3461    3.5393    0.0000 H   0  0  0  0  0  0  0  0  0  0  0  0
    5.4471    1.6322    0.0000 H   0  0  0  0  0  0  0  0  0  0  0  0
    5.7461    3.7182    0.0000 H   0  0  0  0  0  0  0  0  0  0  0  0
    5.1261    4.3382    0.0000 H   0  0  0  0  0  0  0  0  0  0  0  0
    4.5061    3.7182    0.0000 H   0  0  0  0  0  0  0  0  0  0  0  0
    5.6821    1.6813    0.0000 H   0  0  0  0  0  0  0  0  0  0  0  0
    6.5291    1.9082    0.0000 H   0  0  0  0  0  0  0  0  0  0  0  0
    6.3021    2.7552    0.0000 H   0  0  0  0  0  0  0  0  0  0  0  0
    2.7231    2.9082    0.0000 H   0  0  0  0  0  0  0  0  0  0  0  0
    4.5174   -0.2619    0.0000 H   0  0  0  0  0  0  0  0  0  0  0  0
    4.4361    4.1813    0.0000 H   0  0  0  0  0  0  0  0  0  0  0  0
    4.6630    5.0282    0.0000 H   0  0  0  0  0  0  0  0  0  0  0  0
    3.8161    5.2552    0.0000 H   0  0  0  0  0  0  0  0  0  0  0  0
    2.7040    5.2552    0.0000 H   0  0  0  0  0  0  0  0  0  0  0  0
    1.8571    5.0282    0.0000 H   0  0  0  0  0  0  0  0  0  0  0  0
    2.0840    4.1813    0.0000 H   0  0  0  0  0  0  0  0  0  0  0  0
    5.1355   -1.4878    0.0000 H   0  0  0  0  0  0  0  0  0  0  0  0
    4.8791   -0.6987    0.0000 H   0  0  0  0  0  0  0  0  0  0  0  0
    2.1916   -0.3369    0.0000 H   0  0  0  0  0  0  0  0  0  0  0  0
    1.4103   -0.7350    0.0000 H   0  0  0  0  0  0  0  0  0  0  0  0
    1.8084   -1.5162    0.0000 H   0  0  0  0  0  0  0  0  0  0  0  0
    2.2416   -2.5497    0.0000 H   0  0  0  0  0  0  0  0  0  0  0  0
    2.1583   -3.3424    0.0000 H   0  0  0  0  0  0  0  0  0  0  0  0
    3.6956   -3.9740    0.0000 H   0  0  0  0  0  0  0  0  0  0  0  0
    1.8746   -4.6534    0.0000 H   0  0  0  0  0  0  0  0  0  0  0  0
    2.7434   -5.2846    0.0000 H   0  0  0  0  0  0  0  0  0  0  0  0
  1 10  1  0  0  0  0
  1 12  1  0  0  0  0
  2 10  2  0  0  0  0
  3 18  2  0  0  0  0
  4  5  1  0  0  0  0
  4  6  1  0  0  0  0
  4  7  1  0  0  0  0
  4  8  1  0  0  0  0
  5  6  1  0  0  0  0
  5  9  1  0  0  0  0
  5 23  1  0  0  0  0
  6 10  1  0  0  0  0
  6 24  1  0  0  0  0
  7 25  1  0  0  0  0
  7 26  1  0  0  0  0
  7 27  1  0  0  0  0
  8 28  1  0  0  0  0
  8 29  1  0  0  0  0
  8 30  1  0  0  0  0
  9 11  2  0  0  0  0
  9 31  1  0  0  0  0
 11 13  1  0  0  0  0
 11 14  1  0  0  0  0
 12 15  1  0  0  0  0
 12 16  1  0  0  0  0
 12 32  1  0  0  0  0
 13 36  1  0  0  0  0
 13 37  1  0  0  0  0
 13 38  1  0  0  0  0
 14 33  1  0  0  0  0
 14 34  1  0  0  0  0
 14 35  1  0  0  0  0
 15 18  1  0  0  0  0
 15 39  1  0  0  0  0
 15 40  1  0  0  0  0
 16 17  2  0  0  0  0
 16 19  1  0  0  0  0
 17 18  1  0  0  0  0
 17 20  1  0  0  0  0
 19 41  1  0  0  0  0
 19 42  1  0  0  0  0
 19 43  1  0  0  0  0
 20 21  1  0  0  0  0
 20 44  1  0  0  0  0
 20 45  1  0  0  0  0
 21 22  2  0  0  0  0
 21 46  1  0  0  0  0
 22 47  1  0  0  0  0
 22 48  1  0  0  0  0
M  END
> <PUBCHEM_COMPOUND_CID>
11442

> <PUBCHEM_COMPOUND_CANONICALIZED>
1

> <PUBCHEM_CACTVS_COMPLEXITY>
574

> <PUBCHEM_CACTVS_HBOND_ACCEPTOR>
3

> <PUBCHEM_CACTVS_HBOND_DONOR>
0

> <PUBCHEM_CACTVS_ROTATABLE_BOND>
6

> <PUBCHEM_CACTVS_SUBSKEYS>
AAADceB4MAAAAAAAAAAAAAAAGAAAAQAAAAAAAAAAAAAAAAAAAAAAGgAAAAAADxSggAICCAAABACIAqDSCAAAAAAgAAAICAEAAEgABBYAIQACEAAEoAAIIQOIwIAPgAAAAAAAAAAAAAAAAAAAAAAAAAAAAA==

> <PUBCHEM_IUPAC_OPENEYE_NAME>
(3-allyl-2-methyl-4-oxo-cyclopent-2-en-1-yl) 2,2-dimethyl-3-(2-methylprop-1-enyl)cyclopropanecarboxylate

> <PUBCHEM_IUPAC_CAS_NAME>
2,2-dimethyl-3-(2-methylprop-1-enyl)-1-cyclopropanecarboxylic acid (2-methyl-4-oxo-3-prop-2-enyl-1-cyclopent-2-enyl) ester

> <PUBCHEM_IUPAC_NAME>
(2-methyl-4-oxo-3-prop-2-enylcyclopent-2-en-1-yl) 2,2-dimethyl-3-(2-methylprop-1-enyl)cyclopropane-1-carboxylate

> <PUBCHEM_IUPAC_SYSTEMATIC_NAME>
(2-methyl-4-oxidanylidene-3-prop-2-enyl-cyclopent-2-en-1-yl) 2,2-dimethyl-3-(2-methylprop-1-enyl)cyclopropane-1-carboxylate

> <PUBCHEM_IUPAC_TRADITIONAL_NAME>
2,2-dimethyl-3-(2-methylprop-1-enyl)cyclopropanecarboxylic acid (3-allyl-4-keto-2-methyl-cyclopent-2-en-1-yl) ester

> <PUBCHEM_IUPAC_INCHI>
InChI=1S/C19H26O3/c1-7-8-13-12(4)16(10-15(13)20)22-18(21)17-14(9-11(2)3)19(17,5)6/h7,9,14,16-17H,1,8,10H2,2-6H3

> <PUBCHEM_IUPAC_INCHIKEY>
ZCVAOQKBXKSDMS-UHFFFAOYSA-N

> <PUBCHEM_XLOGP3>
4.8

> <PUBCHEM_EXACT_MASS>
302.188195

> <PUBCHEM_MOLECULAR_FORMULA>
C19H26O3

> <PUBCHEM_MOLECULAR_WEIGHT>
302.40794

> <PUBCHEM_OPENEYE_CAN_SMILES>
CC1=C(C(=O)CC1OC(=O)C2C(C2(C)C)C=C(C)C)CC=C

> <PUBCHEM_OPENEYE_ISO_SMILES>
CC1=C(C(=O)CC1OC(=O)C2C(C2(C)C)C=C(C)C)CC=C

> <PUBCHEM_CACTVS_TPSA>
43.4

> <PUBCHEM_MONOISOTOPIC_WEIGHT>
302.188195

> <PUBCHEM_TOTAL_CHARGE>
0

> <PUBCHEM_HEAVY_ATOM_COUNT>
22

> <PUBCHEM_ATOM_DEF_STEREO_COUNT>
0

> <PUBCHEM_ATOM_UDEF_STEREO_COUNT>
3

> <PUBCHEM_BOND_DEF_STEREO_COUNT>
0

> <PUBCHEM_BOND_UDEF_STEREO_COUNT>
0

> <PUBCHEM_ISOTOPIC_ATOM_COUNT>
0

> <PUBCHEM_COMPONENT_COUNT>
1

> <PUBCHEM_CACTVS_TAUTO_COUNT>
5

> <PUBCHEM_COORDINATE_TYPE>
1
5
255

> <PUBCHEM_BONDANNOTATIONS>
12  32  3
5  23  3
6  24  3

$$$$

