17395453
  -OEChem-06241222502D

 43 46  0     0  0  0  0  0  0999 V2000
    5.4836   -3.7024    0.0000 S   0  0  0  0  0  0  0  0  0  0  0  0
    8.2983   -2.5000    0.0000 O   0  0  0  0  0  0  0  0  0  0  0  0
    6.5662    2.5000    0.0000 O   0  0  0  0  0  0  0  0  0  0  0  0
    8.4028    3.4945    0.0000 O   0  0  0  0  0  0  0  0  0  0  0  0
    7.4323   -1.0000    0.0000 N   0  0  0  0  0  0  0  0  0  0  0  0
    7.4323    1.0000    0.0000 N   0  0  0  0  0  0  0  0  0  0  0  0
    5.6527   -2.0933    0.0000 N   0  0  0  0  0  0  0  0  0  0  0  0
    6.5662   -0.5000    0.0000 C   0  0  0  0  0  0  0  0  0  0  0  0
    8.2983   -0.5000    0.0000 C   0  0  0  0  0  0  0  0  0  0  0  0
    6.5662    0.5000    0.0000 C   0  0  0  0  0  0  0  0  0  0  0  0
    8.2983    0.5000    0.0000 C   0  0  0  0  0  0  0  0  0  0  0  0
    7.4323   -2.0000    0.0000 C   0  0  0  0  0  0  0  0  0  0  0  0
    7.4323    2.0000    0.0000 C   0  0  0  0  0  0  0  0  0  0  0  0
    6.5662   -2.5000    0.0000 C   0  0  0  0  0  0  0  0  0  0  0  0
    8.2983    2.5000    0.0000 C   0  0  0  0  0  0  0  0  0  0  0  0
    6.4617   -3.4945    0.0000 C   0  0  0  0  0  0  0  0  0  0  0  0
    9.2118    2.0933    0.0000 C   0  0  0  0  0  0  0  0  0  0  0  0
    4.9836   -2.8364    0.0000 C   0  0  0  0  0  0  0  0  0  0  0  0
    3.9890   -2.7319    0.0000 C   0  0  0  0  0  0  0  0  0  0  0  0
    9.8810    2.8364    0.0000 C   0  0  0  0  0  0  0  0  0  0  0  0
    9.3810    3.7024    0.0000 C   0  0  0  0  0  0  0  0  0  0  0  0
    3.5823   -1.8183    0.0000 C   0  0  0  0  0  0  0  0  0  0  0  0
    3.4013   -3.5409    0.0000 C   0  0  0  0  0  0  0  0  0  0  0  0
    2.5878   -1.7138    0.0000 C   0  0  0  0  0  0  0  0  0  0  0  0
    2.4067   -3.4364    0.0000 C   0  0  0  0  0  0  0  0  0  0  0  0
    2.0000   -2.5228    0.0000 C   0  0  0  0  0  0  0  0  0  0  0  0
    8.5103   -1.0826    0.0000 H   0  0  0  0  0  0  0  0  0  0  0  0
    8.9089   -0.3923    0.0000 H   0  0  0  0  0  0  0  0  0  0  0  0
    5.9557   -0.3923    0.0000 H   0  0  0  0  0  0  0  0  0  0  0  0
    6.3542   -1.0826    0.0000 H   0  0  0  0  0  0  0  0  0  0  0  0
    8.9089    0.3923    0.0000 H   0  0  0  0  0  0  0  0  0  0  0  0
    8.5103    1.0826    0.0000 H   0  0  0  0  0  0  0  0  0  0  0  0
    6.3542    1.0826    0.0000 H   0  0  0  0  0  0  0  0  0  0  0  0
    5.9557    0.3923    0.0000 H   0  0  0  0  0  0  0  0  0  0  0  0
    6.9225   -3.9094    0.0000 H   0  0  0  0  0  0  0  0  0  0  0  0
    9.3407    1.4868    0.0000 H   0  0  0  0  0  0  0  0  0  0  0  0
   10.4976    2.7716    0.0000 H   0  0  0  0  0  0  0  0  0  0  0  0
    9.6332    4.2688    0.0000 H   0  0  0  0  0  0  0  0  0  0  0  0
    3.9467   -1.3167    0.0000 H   0  0  0  0  0  0  0  0  0  0  0  0
    3.6534   -4.1073    0.0000 H   0  0  0  0  0  0  0  0  0  0  0  0
    2.3356   -1.1474    0.0000 H   0  0  0  0  0  0  0  0  0  0  0  0
    2.0423   -3.9380    0.0000 H   0  0  0  0  0  0  0  0  0  0  0  0
    1.3834   -2.4580    0.0000 H   0  0  0  0  0  0  0  0  0  0  0  0
  1 16  1  0  0  0  0
  1 18  1  0  0  0  0
  2 12  2  0  0  0  0
  3 13  2  0  0  0  0
  4 15  1  0  0  0  0
  4 21  1  0  0  0  0
  5  8  1  0  0  0  0
  5  9  1  0  0  0  0
  5 12  1  0  0  0  0
  6 10  1  0  0  0  0
  6 11  1  0  0  0  0
  6 13  1  0  0  0  0
  7 14  1  0  0  0  0
  7 18  2  0  0  0  0
  8 10  1  0  0  0  0
  8 29  1  0  0  0  0
  8 30  1  0  0  0  0
  9 11  1  0  0  0  0
  9 27  1  0  0  0  0
  9 28  1  0  0  0  0
 10 33  1  0  0  0  0
 10 34  1  0  0  0  0
 11 31  1  0  0  0  0
 11 32  1  0  0  0  0
 12 14  1  0  0  0  0
 13 15  1  0  0  0  0
 14 16  2  0  0  0  0
 15 17  2  0  0  0  0
 16 35  1  0  0  0  0
 17 20  1  0  0  0  0
 17 36  1  0  0  0  0
 18 19  1  0  0  0  0
 19 22  2  0  0  0  0
 19 23  1  0  0  0  0
 20 21  2  0  0  0  0
 20 37  1  0  0  0  0
 21 38  1  0  0  0  0
 22 24  1  0  0  0  0
 22 39  1  0  0  0  0
 23 25  2  0  0  0  0
 23 40  1  0  0  0  0
 24 26  2  0  0  0  0
 24 41  1  0  0  0  0
 25 26  1  0  0  0  0
 25 42  1  0  0  0  0
 26 43  1  0  0  0  0
M  END
> <PUBCHEM_COMPOUND_CID>
17395453

> <PUBCHEM_COMPOUND_CANONICALIZED>
1

> <PUBCHEM_CACTVS_COMPLEXITY>
518

> <PUBCHEM_CACTVS_HBOND_ACCEPTOR>
5

> <PUBCHEM_CACTVS_HBOND_DONOR>
0

> <PUBCHEM_CACTVS_ROTATABLE_BOND>
3

> <PUBCHEM_CACTVS_SUBSKEYS>
AAADceB7MABAAAAAAAAAAAAAAAAAAWJAAAA8QAAAAAAAAAAB8AAAHgQAAAAADAzl3gawhZMIFEisA61y1AKC+KBnKjgIiDX+LNgOZrKktT+XOSjkxhG4qYeYlwIOAAAAAAAAAAAAAAAAAAAAAAAAAAAAAA==

> <PUBCHEM_IUPAC_OPENEYE_NAME>
2-furyl-[4-(2-phenylthiazole-4-carbonyl)piperazin-1-yl]methanone

> <PUBCHEM_IUPAC_CAS_NAME>
2-furanyl-[4-[oxo-(2-phenyl-4-thiazolyl)methyl]-1-piperazinyl]methanone

> <PUBCHEM_IUPAC_NAME>
furan-2-yl-[4-(2-phenyl-1,3-thiazole-4-carbonyl)piperazin-1-yl]methanone

> <PUBCHEM_IUPAC_SYSTEMATIC_NAME>
furan-2-yl-[4-[(2-phenyl-1,3-thiazol-4-yl)carbonyl]piperazin-1-yl]methanone

> <PUBCHEM_IUPAC_TRADITIONAL_NAME>
2-furyl-[4-(2-phenylthiazole-4-carbonyl)piperazino]methanone

> <PUBCHEM_IUPAC_INCHI>
InChI=1S/C19H17N3O3S/c23-18(15-13-26-17(20-15)14-5-2-1-3-6-14)21-8-10-22(11-9-21)19(24)16-7-4-12-25-16/h1-7,12-13H,8-11H2

> <PUBCHEM_IUPAC_INCHIKEY>
OQDSSAJKAOBVHL-UHFFFAOYSA-N

> <PUBCHEM_XLOGP3_AA>
2.7

> <PUBCHEM_EXACT_MASS>
367.099062

> <PUBCHEM_MOLECULAR_FORMULA>
C19H17N3O3S

> <PUBCHEM_MOLECULAR_WEIGHT>
367.42158

> <PUBCHEM_OPENEYE_CAN_SMILES>
C1CN(CCN1C(=O)C2=CC=CO2)C(=O)C3=CSC(=N3)C4=CC=CC=C4

> <PUBCHEM_OPENEYE_ISO_SMILES>
C1CN(CCN1C(=O)C2=CC=CO2)C(=O)C3=CSC(=N3)C4=CC=CC=C4

> <PUBCHEM_CACTVS_TPSA>
94.9

> <PUBCHEM_MONOISOTOPIC_WEIGHT>
367.099062

> <PUBCHEM_TOTAL_CHARGE>
0

> <PUBCHEM_HEAVY_ATOM_COUNT>
26

> <PUBCHEM_ATOM_DEF_STEREO_COUNT>
0

> <PUBCHEM_ATOM_UDEF_STEREO_COUNT>
0

> <PUBCHEM_BOND_DEF_STEREO_COUNT>
0

> <PUBCHEM_BOND_UDEF_STEREO_COUNT>
0

> <PUBCHEM_ISOTOPIC_ATOM_COUNT>
0

> <PUBCHEM_COMPONENT_COUNT>
1

> <PUBCHEM_CACTVS_TAUTO_COUNT>
1

> <PUBCHEM_COORDINATE_TYPE>
1
5
255

> <PUBCHEM_BONDANNOTATIONS>
1  16  8
1  18  8
14  16  8
15  17  8
17  20  8
19  22  8
19  23  8
20  21  8
22  24  8
23  25  8
24  26  8
25  26  8
4  15  8
4  21  8
7  14  8
7  18  8

$$$$

