7131
  -OEChem-06261201483D

 26 27  0     0  0  0  0  0  0999 V2000
   -2.3227   -0.3025   -0.2937 O   0  0  0  0  0  0  0  0  0  0  0  0
   -5.0721   -0.8296   -0.3901 O   0  0  0  0  0  0  0  0  0  0  0  0
    1.3285   -0.6118   -0.0394 C   0  0  0  0  0  0  0  0  0  0  0  0
    1.7020    0.7531   -0.0239 C   0  0  0  0  0  0  0  0  0  0  0  0
   -1.0091    0.0421   -0.2053 C   0  0  0  0  0  0  0  0  0  0  0  0
   -0.0314   -0.9505   -0.1307 C   0  0  0  0  0  0  0  0  0  0  0  0
    0.7047    1.7391   -0.1003 C   0  0  0  0  0  0  0  0  0  0  0  0
   -0.6417    1.3845   -0.1904 C   0  0  0  0  0  0  0  0  0  0  0  0
    2.3259   -1.5976    0.0366 C   0  0  0  0  0  0  0  0  0  0  0  0
    3.0618    1.0921    0.0671 C   0  0  0  0  0  0  0  0  0  0  0  0
   -3.2708    0.6025    0.2701 C   0  0  0  0  0  0  0  0  0  0  0  0
    3.6721   -1.2428    0.1269 C   0  0  0  0  0  0  0  0  0  0  0  0
    4.0394    0.0996    0.1422 C   0  0  0  0  0  0  0  0  0  0  0  0
   -4.4867   -0.1782    0.7307 C   0  0  0  0  0  0  0  0  0  0  0  0
   -0.3357   -1.9956   -0.1438 H   0  0  0  0  0  0  0  0  0  0  0  0
    0.9700    2.7944   -0.0961 H   0  0  0  0  0  0  0  0  0  0  0  0
   -1.3682    2.1872   -0.2746 H   0  0  0  0  0  0  0  0  0  0  0  0
    2.0619   -2.6531    0.0263 H   0  0  0  0  0  0  0  0  0  0  0  0
    3.3719    2.1350    0.0806 H   0  0  0  0  0  0  0  0  0  0  0  0
   -2.8649    1.1270    1.1439 H   0  0  0  0  0  0  0  0  0  0  0  0
   -3.5587    1.3266   -0.5006 H   0  0  0  0  0  0  0  0  0  0  0  0
    4.4336   -2.0150    0.1852 H   0  0  0  0  0  0  0  0  0  0  0  0
    5.0877    0.3751    0.2124 H   0  0  0  0  0  0  0  0  0  0  0  0
   -5.2334    0.4764    1.1895 H   0  0  0  0  0  0  0  0  0  0  0  0
   -4.2026   -0.9540    1.4481 H   0  0  0  0  0  0  0  0  0  0  0  0
   -5.3445   -0.1408   -1.0201 H   0  0  0  0  0  0  0  0  0  0  0  0
  1  5  1  0  0  0  0
  1 11  1  0  0  0  0
  2 14  1  0  0  0  0
  2 26  1  0  0  0  0
  3  4  1  0  0  0  0
  3  6  1  0  0  0  0
  3  9  2  0  0  0  0
  4  7  1  0  0  0  0
  4 10  2  0  0  0  0
  5  6  2  0  0  0  0
  5  8  1  0  0  0  0
  6 15  1  0  0  0  0
  7  8  2  0  0  0  0
  7 16  1  0  0  0  0
  8 17  1  0  0  0  0
  9 12  1  0  0  0  0
  9 18  1  0  0  0  0
 10 13  1  0  0  0  0
 10 19  1  0  0  0  0
 11 14  1  0  0  0  0
 11 20  1  0  0  0  0
 11 21  1  0  0  0  0
 12 13  2  0  0  0  0
 12 22  1  0  0  0  0
 13 23  1  0  0  0  0
 14 24  1  0  0  0  0
 14 25  1  0  0  0  0
M  END
> <PUBCHEM_COMPOUND_CID>
7131

> <PUBCHEM_CONFORMER_RMSD>
0.6

> <PUBCHEM_CONFORMER_DIVERSEORDER>
1
5
10
6
4
9
7
3
2
8

> <PUBCHEM_MMFF94_PARTIAL_CHARGES>
20
1 -0.36
10 -0.15
11 0.28
12 -0.15
13 -0.15
14 0.28
15 0.15
16 0.15
17 0.15
18 0.15
19 0.15
2 -0.68
22 0.15
23 0.15
26 0.4
5 0.08
6 -0.15
7 -0.15
8 -0.15
9 -0.15

> <PUBCHEM_EFFECTIVE_ROTOR_COUNT>
3

> <PUBCHEM_PHARMACOPHORE_FEATURES>
5
1 1 acceptor
1 2 acceptor
1 2 donor
6 3 4 5 6 7 8 rings
6 3 4 9 10 12 13 rings

> <PUBCHEM_HEAVY_ATOM_COUNT>
14

> <PUBCHEM_ATOM_DEF_STEREO_COUNT>
0

> <PUBCHEM_ATOM_UDEF_STEREO_COUNT>
0

> <PUBCHEM_BOND_DEF_STEREO_COUNT>
0

> <PUBCHEM_BOND_UDEF_STEREO_COUNT>
0

> <PUBCHEM_ISOTOPIC_ATOM_COUNT>
0

> <PUBCHEM_COMPONENT_COUNT>
1

> <PUBCHEM_CACTVS_TAUTO_COUNT>
1

> <PUBCHEM_CONFORMER_ID>
00001BDB00000001

> <PUBCHEM_MMFF94_ENERGY>
44.3599

> <PUBCHEM_FEATURE_SELFOVERLAP>
25.402

> <PUBCHEM_SHAPE_FINGERPRINT>
10219947 1 18409445894821843573
11471102 20 18412546496264020484
11543360 7 15338822162602999927
11806522 49 18411700967780435991
12032990 46 18340484568651479174
12251169 10 18333731312420281071
12346645 6 18261108573843081574
13690532 89 18411138039185793603
13862211 1 18412268358698899602
14115302 16 17489294274643851190
14251717 144 18411419501172302231
14252887 29 18187638141633723782
15196674 1 18410856606911037448
15375462 189 18334582347120445858
16945 1 18410304614030949132
17834072 33 18261395507849780455
17844478 74 18060138773071058244
200 152 18260555511484533381
20645477 70 18411705421603928679
20871998 22 18190454046688965438
21267235 1 18409721885294466614
21501925 9 18411984671475960209
221490 88 18126841599906613499
22485316 2 18343303686695822307
23402539 116 18187089464320597541
23402655 69 18409172129860192141
23463225 33 18411136965481009900
23557571 272 16845583040562982629
2748010 2 18194693789633070604
2871803 45 18130510820110162659
33824 294 18342177773730362002
42 15 18410008853702842145
449060 62 18335980892084118312
5104073 3 18338517542244147121
537710 114 18411975845671867708
602551 16 15285933394581341551
69090 78 18410857642341261611
83771 10 18412828014058535244

> <PUBCHEM_SHAPE_MULTIPOLES>
276.37
8.34
1.57
0.67
8.22
0.17
-0.03
-2.14
-0.85
-0.86
0.04
0.19
-0.01
-0.11

> <PUBCHEM_SHAPE_SELFOVERLAP>
592.912

> <PUBCHEM_SHAPE_VOLUME>
153.4

> <PUBCHEM_COORDINATE_TYPE>
2
5
10

$$$$

