11414
  -OEChem-06261205393D

 12 12  0     0  0  0  0  0  0999 V2000
    2.1020    1.7321    0.0007 Br  0  0  0  0  0  0  0  0  0  0  0  0
    2.1020   -1.7322   -0.0008 Br  0  0  0  0  0  0  0  0  0  0  0  0
    0.5073    0.6977   -0.0002 C   0  0  0  0  0  0  0  0  0  0  0  0
    0.5075   -0.6973    0.0004 C   0  0  0  0  0  0  0  0  0  0  0  0
   -0.7009    1.3949   -0.0006 C   0  0  0  0  0  0  0  0  0  0  0  0
   -0.7005   -1.3948    0.0007 C   0  0  0  0  0  0  0  0  0  0  0  0
   -1.9088    0.6972   -0.0004 C   0  0  0  0  0  0  0  0  0  0  0  0
   -1.9086   -0.6976    0.0002 C   0  0  0  0  0  0  0  0  0  0  0  0
   -0.7240    2.4818   -0.0009 H   0  0  0  0  0  0  0  0  0  0  0  0
   -0.7233   -2.4817    0.0009 H   0  0  0  0  0  0  0  0  0  0  0  0
   -2.8496    1.2399   -0.0007 H   0  0  0  0  0  0  0  0  0  0  0  0
   -2.8493   -1.2406    0.0003 H   0  0  0  0  0  0  0  0  0  0  0  0
  1  3  1  0  0  0  0
  2  4  1  0  0  0  0
  3  4  1  0  0  0  0
  3  5  2  0  0  0  0
  4  6  2  0  0  0  0
  5  7  1  0  0  0  0
  5  9  1  0  0  0  0
  6  8  1  0  0  0  0
  6 10  1  0  0  0  0
  7  8  2  0  0  0  0
  7 11  1  0  0  0  0
  8 12  1  0  0  0  0
M  END
> <PUBCHEM_COMPOUND_CID>
11414

> <PUBCHEM_CONFORMER_RMSD>
0.4

> <PUBCHEM_CONFORMER_DIVERSEORDER>
1

> <PUBCHEM_MMFF94_PARTIAL_CHARGES>
12
1 -0.11
10 0.15
11 0.15
12 0.15
2 -0.11
3 0.11
4 0.11
5 -0.15
6 -0.15
7 -0.15
8 -0.15
9 0.15

> <PUBCHEM_EFFECTIVE_ROTOR_COUNT>
0

> <PUBCHEM_PHARMACOPHORE_FEATURES>
3
1 1 hydrophobe
1 2 hydrophobe
6 3 4 5 6 7 8 rings

> <PUBCHEM_HEAVY_ATOM_COUNT>
8

> <PUBCHEM_ATOM_DEF_STEREO_COUNT>
0

> <PUBCHEM_ATOM_UDEF_STEREO_COUNT>
0

> <PUBCHEM_BOND_DEF_STEREO_COUNT>
0

> <PUBCHEM_BOND_UDEF_STEREO_COUNT>
0

> <PUBCHEM_ISOTOPIC_ATOM_COUNT>
0

> <PUBCHEM_COMPONENT_COUNT>
1

> <PUBCHEM_CACTVS_TAUTO_COUNT>
1

> <PUBCHEM_CONFORMER_ID>
00002C9600000001

> <PUBCHEM_MMFF94_ENERGY>
17.4657

> <PUBCHEM_FEATURE_SELFOVERLAP>
15.223

> <PUBCHEM_SHAPE_FINGERPRINT>
12423570 1 11085283262521082369
16714656 1 17905888432870938462
16945 1 18410575089063541254
18185500 45 17980197813753169290
193761 8 18410575084805497221
20871998 184 17037528878812397620
21040471 1 18338516322452322085
23552423 10 18342174449340947366
241688 4 18195810888671745904
2748010 2 18412263939029313389
5084963 1 18115316711949335283

> <PUBCHEM_SHAPE_MULTIPOLES>
176.52
2.98
2.23
0.65
0.33
0
0
0
0
1.26
0
0.07
0
0

> <PUBCHEM_SHAPE_SELFOVERLAP>
335.349

> <PUBCHEM_SHAPE_VOLUME>
111.4

> <PUBCHEM_COORDINATE_TYPE>
2
5
10

$$$$

