17395847
  -OEChem-06241222523D

 51 53  0     1  0  0  0  0  0999 V2000
   -5.6005    0.7894    0.5011 S   0  0  0  0  0  0  0  0  0  0  0  0
   -6.5765   -0.2577    0.7201 O   0  0  0  0  0  0  0  0  0  0  0  0
   -5.7150    2.0956    1.1155 O   0  0  0  0  0  0  0  0  0  0  0  0
   -1.6436    1.8917    0.2081 O   0  0  0  0  0  0  0  0  0  0  0  0
   -1.9561   -0.3168   -0.4950 N   0  0  0  0  0  0  0  0  0  0  0  0
   -3.3885   -0.2178   -0.5250 C   0  0  1  0  0  0  0  0  0  0  0  0
   -3.9709    0.1394    0.8419 C   0  0  0  0  0  0  0  0  0  0  0  0
   -3.8709    0.8713   -1.4865 C   0  0  0  0  0  0  0  0  0  0  0  0
   -5.3726    0.9984   -1.2586 C   0  0  0  0  0  0  0  0  0  0  0  0
   -1.3904   -1.6150   -0.8776 C   0  0  0  0  0  0  0  0  0  0  0  0
   -1.8676   -2.7508    0.0344 C   0  0  0  0  0  0  0  0  0  0  0  0
   -1.1868    0.7957   -0.1148 C   0  0  0  0  0  0  0  0  0  0  0  0
   -1.3145   -4.1053   -0.4143 C   0  0  0  0  0  0  0  0  0  0  0  0
   -1.4539   -2.4714    1.4797 C   0  0  0  0  0  0  0  0  0  0  0  0
    0.2782    0.6635   -0.0741 C   0  0  0  0  0  0  0  0  0  0  0  0
    1.0364    0.9511   -1.2091 C   0  0  0  0  0  0  0  0  0  0  0  0
    0.9087    0.2495    1.0994 C   0  0  0  0  0  0  0  0  0  0  0  0
    2.4249    0.8252   -1.1706 C   0  0  0  0  0  0  0  0  0  0  0  0
    2.2974    0.1236    1.1380 C   0  0  0  0  0  0  0  0  0  0  0  0
    3.0554    0.4114    0.0029 C   0  0  0  0  0  0  0  0  0  0  0  0
    4.4958    0.2809    0.0428 C   0  0  0  0  0  0  0  0  0  0  0  0
    5.0956   -0.9328   -0.2936 C   0  0  0  0  0  0  0  0  0  0  0  0
    5.2849    1.3686    0.4170 C   0  0  0  0  0  0  0  0  0  0  0  0
    6.4842   -1.0588   -0.2554 C   0  0  0  0  0  0  0  0  0  0  0  0
    6.6735    1.2425    0.4550 C   0  0  0  0  0  0  0  0  0  0  0  0
    7.2731    0.0287    0.1187 C   0  0  0  0  0  0  0  0  0  0  0  0
   -3.8315   -1.1587   -0.8724 H   0  0  0  0  0  0  0  0  0  0  0  0
   -3.4264    0.9077    1.3930 H   0  0  0  0  0  0  0  0  0  0  0  0
   -4.0755   -0.7411    1.4814 H   0  0  0  0  0  0  0  0  0  0  0  0
   -3.4110    1.8456   -1.2989 H   0  0  0  0  0  0  0  0  0  0  0  0
   -3.6517    0.6154   -2.5289 H   0  0  0  0  0  0  0  0  0  0  0  0
   -5.7647    1.9685   -1.5706 H   0  0  0  0  0  0  0  0  0  0  0  0
   -5.9156    0.1947   -1.7644 H   0  0  0  0  0  0  0  0  0  0  0  0
   -0.2983   -1.5896   -0.8946 H   0  0  0  0  0  0  0  0  0  0  0  0
   -1.7096   -1.8065   -1.9099 H   0  0  0  0  0  0  0  0  0  0  0  0
   -2.9593   -2.8340    0.0122 H   0  0  0  0  0  0  0  0  0  0  0  0
   -1.6757   -4.9092    0.2357 H   0  0  0  0  0  0  0  0  0  0  0  0
   -1.6327   -4.3317   -1.4373 H   0  0  0  0  0  0  0  0  0  0  0  0
   -0.2195   -4.1152   -0.3898 H   0  0  0  0  0  0  0  0  0  0  0  0
   -1.8533   -1.5281    1.8591 H   0  0  0  0  0  0  0  0  0  0  0  0
   -1.8231   -3.2645    2.1396 H   0  0  0  0  0  0  0  0  0  0  0  0
   -0.3638   -2.4461    1.5798 H   0  0  0  0  0  0  0  0  0  0  0  0
    0.5546    1.2736   -2.1284 H   0  0  0  0  0  0  0  0  0  0  0  0
    0.3290    0.0305    1.9920 H   0  0  0  0  0  0  0  0  0  0  0  0
    3.0008    1.0532   -2.0644 H   0  0  0  0  0  0  0  0  0  0  0  0
    2.7729   -0.1986    2.0613 H   0  0  0  0  0  0  0  0  0  0  0  0
    4.4953   -1.7906   -0.5876 H   0  0  0  0  0  0  0  0  0  0  0  0
    4.8337    2.3219    0.6822 H   0  0  0  0  0  0  0  0  0  0  0  0
    6.9512   -2.0038   -0.5172 H   0  0  0  0  0  0  0  0  0  0  0  0
    7.2880    2.0893    0.7463 H   0  0  0  0  0  0  0  0  0  0  0  0
    8.3544   -0.0694    0.1483 H   0  0  0  0  0  0  0  0  0  0  0  0
  1  2  2  0  0  0  0
  1  3  2  0  0  0  0
  1  7  1  0  0  0  0
  1  9  1  0  0  0  0
  4 12  2  0  0  0  0
  5  6  1  0  0  0  0
  5 10  1  0  0  0  0
  5 12  1  0  0  0  0
  6  7  1  0  0  0  0
  6  8  1  0  0  0  0
  6 27  1  0  0  0  0
  7 28  1  0  0  0  0
  7 29  1  0  0  0  0
  8  9  1  0  0  0  0
  8 30  1  0  0  0  0
  8 31  1  0  0  0  0
  9 32  1  0  0  0  0
  9 33  1  0  0  0  0
 10 11  1  0  0  0  0
 10 34  1  0  0  0  0
 10 35  1  0  0  0  0
 11 13  1  0  0  0  0
 11 14  1  0  0  0  0
 11 36  1  0  0  0  0
 12 15  1  0  0  0  0
 13 37  1  0  0  0  0
 13 38  1  0  0  0  0
 13 39  1  0  0  0  0
 14 40  1  0  0  0  0
 14 41  1  0  0  0  0
 14 42  1  0  0  0  0
 15 16  2  0  0  0  0
 15 17  1  0  0  0  0
 16 18  1  0  0  0  0
 16 43  1  0  0  0  0
 17 19  2  0  0  0  0
 17 44  1  0  0  0  0
 18 20  2  0  0  0  0
 18 45  1  0  0  0  0
 19 20  1  0  0  0  0
 19 46  1  0  0  0  0
 20 21  1  0  0  0  0
 21 22  2  0  0  0  0
 21 23  1  0  0  0  0
 22 24  1  0  0  0  0
 22 47  1  0  0  0  0
 23 25  2  0  0  0  0
 23 48  1  0  0  0  0
 24 26  2  0  0  0  0
 24 49  1  0  0  0  0
 25 26  1  0  0  0  0
 25 50  1  0  0  0  0
 26 51  1  0  0  0  0
M  END
> <PUBCHEM_COMPOUND_CID>
17395847

> <PUBCHEM_CONFORMER_RMSD>
0.8

> <PUBCHEM_CONFORMER_DIVERSEORDER>
1
25
40
27
15
35
23
19
28
30
39
18
24
5
37
32
38
26
36
34
16
11
4
14
22
20
33
10
29
7
6
17
9
3
13
21
8
31
12
2

> <PUBCHEM_MMFF94_PARTIAL_CHARGES>
29
1 1.09
10 0.3
12 0.54
15 0.09
16 -0.15
17 -0.15
18 -0.15
19 -0.15
2 -0.65
22 -0.15
23 -0.15
24 -0.15
25 -0.15
26 -0.15
3 -0.65
4 -0.57
43 0.15
44 0.15
45 0.15
46 0.15
47 0.15
48 0.15
49 0.15
5 -0.66
50 0.15
51 0.15
6 0.3
7 0.11
9 0.11

> <PUBCHEM_EFFECTIVE_ROTOR_COUNT>
6.8

> <PUBCHEM_PHARMACOPHORE_FEATURES>
7
1 2 acceptor
1 3 acceptor
1 4 acceptor
3 11 13 14 hydrophobe
5 1 6 7 8 9 rings
6 15 16 17 18 19 20 rings
6 21 22 23 24 25 26 rings

> <PUBCHEM_HEAVY_ATOM_COUNT>
26

> <PUBCHEM_ATOM_DEF_STEREO_COUNT>
0

> <PUBCHEM_ATOM_UDEF_STEREO_COUNT>
1

> <PUBCHEM_BOND_DEF_STEREO_COUNT>
0

> <PUBCHEM_BOND_UDEF_STEREO_COUNT>
0

> <PUBCHEM_ISOTOPIC_ATOM_COUNT>
0

> <PUBCHEM_COMPONENT_COUNT>
1

> <PUBCHEM_CACTVS_TAUTO_COUNT>
1

> <PUBCHEM_CONFORMER_ID>
0109708700000001

> <PUBCHEM_MMFF94_ENERGY>
76.6719

> <PUBCHEM_FEATURE_SELFOVERLAP>
35.536

> <PUBCHEM_SHAPE_FINGERPRINT>
107951 10 17917712409070559578
10835480 77 18261402083819763816
10906281 52 17821995498145540012
11036077 3 18409447007857033975
11045977 3 18114186285764225680
11135609 99 15122925307380771473
11135926 11 17846515733544223098
11315181 36 17821732697607303268
11405975 8 18337390418725337400
11524674 6 18334014990758004111
11578080 2 17971757661861408248
11796584 16 18334012766682239278
12236239 1 18273493481092137484
12616971 3 16988285283746951036
12643181 29 18409168818862958494
12788726 201 17241041123534077658
13533116 47 17895195558470059894
13914758 101 13984652681051321371
14251764 18 17603305938347582605
14341114 176 18408322177576500084
14617045 38 18341889727881144534
14856354 85 16128648644066565115
14866123 147 18267863892065828939
15021287 119 17274820225442220637
15183329 4 18335147517856769902
15537594 2 17632866325951537066
15849732 13 17989207048985757469
15927050 60 18408325497122756551
18608769 82 18334857165700266051
19141452 34 18341332210844600862
19489759 90 4678818350402993359
20681677 155 18272094876853315874
21033648 29 18339382819436361177
21267235 1 17346591976506106861
21424621 283 18187641453227745225
21756936 100 18113899373574974995
22224240 67 18411978066871203049
23402539 116 17967536787273162021
23559900 14 18262526897025813208
23569917 315 18410005529826586095
23622692 88 17917712387615925559
249057 3 18413389818010205716
3009799 131 6699807566657641011
3383291 50 18341329990289220931
34797466 226 18114174225786637844
3633792 109 18337680827160236005
4015057 19 17823431408686365185
4073 2 18339643335742066858
4325135 7 12895353295915026938
4340502 62 18335416894069032382
5104073 3 18199756834752800704
5385378 56 18266168612654665139
559249 180 18343868792343407878
6669772 16 18338516442807151375
7226269 152 18113619006067298537
9953998 17 18339091398164004832

> <PUBCHEM_SHAPE_MULTIPOLES>
516.33
17.1
2.59
1.23
13.39
3.4
0.02
-5.65
-1.62
-2.32
0
-0.96
-0.08
0.23

> <PUBCHEM_SHAPE_SELFOVERLAP>
1086.187

> <PUBCHEM_SHAPE_VOLUME>
292.9

> <PUBCHEM_COORDINATE_TYPE>
2
5
10

$$$$

