12855
  -OEChem-06261207273D

 25 27  0     0  0  0  0  0  0999 V2000
   -0.4881    1.0505   -0.2230 N   0  0  0  0  0  0  0  0  0  0  0  0
   -0.4762   -1.1237    0.2381 N   0  0  0  0  0  0  0  0  0  0  0  0
   -1.8077    0.6853   -0.1463 C   0  0  0  0  0  0  0  0  0  0  0  0
    0.2677   -0.0638    0.0138 C   0  0  0  0  0  0  0  0  0  0  0  0
   -1.7738   -0.6760    0.1424 C   0  0  0  0  0  0  0  0  0  0  0  0
    1.7099   -0.0248    0.0061 C   0  0  0  0  0  0  0  0  0  0  0  0
   -2.9919    1.4070   -0.3001 C   0  0  0  0  0  0  0  0  0  0  0  0
   -2.9836   -1.3751    0.2900 C   0  0  0  0  0  0  0  0  0  0  0  0
    2.4355   -1.1546   -0.3718 C   0  0  0  0  0  0  0  0  0  0  0  0
    2.3786    1.1419    0.3769 C   0  0  0  0  0  0  0  0  0  0  0  0
   -4.1867    0.6953   -0.1500 C   0  0  0  0  0  0  0  0  0  0  0  0
   -4.1850   -0.6709    0.1399 C   0  0  0  0  0  0  0  0  0  0  0  0
    3.8298   -1.1179   -0.3785 C   0  0  0  0  0  0  0  0  0  0  0  0
    3.7730    1.1785    0.3701 C   0  0  0  0  0  0  0  0  0  0  0  0
    4.4986    0.0485   -0.0077 C   0  0  0  0  0  0  0  0  0  0  0  0
   -0.1492    1.9802   -0.4327 H   0  0  0  0  0  0  0  0  0  0  0  0
   -2.9907    2.4675   -0.5250 H   0  0  0  0  0  0  0  0  0  0  0  0
   -2.9929   -2.4367    0.5152 H   0  0  0  0  0  0  0  0  0  0  0  0
    1.9343   -2.0733   -0.6672 H   0  0  0  0  0  0  0  0  0  0  0  0
    1.8442    2.0355    0.6893 H   0  0  0  0  0  0  0  0  0  0  0  0
   -5.1344    1.2165   -0.2612 H   0  0  0  0  0  0  0  0  0  0  0  0
   -5.1298   -1.1969    0.2509 H   0  0  0  0  0  0  0  0  0  0  0  0
    4.3950   -1.9973   -0.6731 H   0  0  0  0  0  0  0  0  0  0  0  0
    4.2943    2.0856    0.6617 H   0  0  0  0  0  0  0  0  0  0  0  0
    5.5843    0.0768   -0.0124 H   0  0  0  0  0  0  0  0  0  0  0  0
  1  3  1  0  0  0  0
  1  4  1  0  0  0  0
  1 16  1  0  0  0  0
  2  4  2  0  0  0  0
  2  5  1  0  0  0  0
  3  5  1  0  0  0  0
  3  7  2  0  0  0  0
  4  6  1  0  0  0  0
  5  8  2  0  0  0  0
  6  9  2  0  0  0  0
  6 10  1  0  0  0  0
  7 11  1  0  0  0  0
  7 17  1  0  0  0  0
  8 12  1  0  0  0  0
  8 18  1  0  0  0  0
  9 13  1  0  0  0  0
  9 19  1  0  0  0  0
 10 14  2  0  0  0  0
 10 20  1  0  0  0  0
 11 12  2  0  0  0  0
 11 21  1  0  0  0  0
 12 22  1  0  0  0  0
 13 15  2  0  0  0  0
 13 23  1  0  0  0  0
 14 15  1  0  0  0  0
 14 24  1  0  0  0  0
 15 25  1  0  0  0  0
M  END
> <PUBCHEM_COMPOUND_CID>
12855

> <PUBCHEM_CONFORMER_RMSD>
0.4

> <PUBCHEM_CONFORMER_DIVERSEORDER>
1
2
3

> <PUBCHEM_MMFF94_PARTIAL_CHARGES>
25
1 0.03
10 -0.15
11 -0.15
12 -0.15
13 -0.15
14 -0.15
15 -0.15
16 0.27
17 0.15
18 0.15
19 0.15
2 -0.57
20 0.15
21 0.15
22 0.15
23 0.15
24 0.15
25 0.15
3 -0.15
4 0.13
5 0.23
6 0.05
7 -0.15
8 -0.15
9 -0.15

> <PUBCHEM_EFFECTIVE_ROTOR_COUNT>
1

> <PUBCHEM_PHARMACOPHORE_FEATURES>
5
1 1 donor
3 1 2 4 cation
5 1 2 3 4 5 rings
6 3 5 7 8 11 12 rings
6 6 9 10 13 14 15 rings

> <PUBCHEM_HEAVY_ATOM_COUNT>
15

> <PUBCHEM_ATOM_DEF_STEREO_COUNT>
0

> <PUBCHEM_ATOM_UDEF_STEREO_COUNT>
0

> <PUBCHEM_BOND_DEF_STEREO_COUNT>
0

> <PUBCHEM_BOND_UDEF_STEREO_COUNT>
0

> <PUBCHEM_ISOTOPIC_ATOM_COUNT>
0

> <PUBCHEM_COMPONENT_COUNT>
1

> <PUBCHEM_CACTVS_TAUTO_COUNT>
1

> <PUBCHEM_CONFORMER_ID>
0000323700000001

> <PUBCHEM_MMFF94_ENERGY>
33.4645

> <PUBCHEM_FEATURE_SELFOVERLAP>
25.479

> <PUBCHEM_SHAPE_FINGERPRINT>
10014705 185 18202005438894468117
10608611 8 18410015429129292008
11132069 177 18272653445897884109
11471102 20 18260550030721232556
11615757 297 17385721374513164448
12032990 46 18411976953614875555
12236239 1 16487256573489746656
13214271 11 18410015412075653359
13296908 3 18410573980861797590
13675066 3 18343298145976942499
14325111 11 18410856568229756649
14866123 147 16891442828992186618
15196674 1 18410855460138717796
15219456 202 18335420170743853110
15375358 24 18410856555450616130
15536298 74 18408323285134249772
17834074 16 18409446990107335662
18175812 5 18409166610289016694
18186145 218 18272374199724253028
19141452 34 18261670377478487383
1986462 14 18343018908593790599
200 152 17676210177771393407
20279233 1 18409444791142056934
20510252 161 18408603686511931897
20528008 55 18408325475309133875
20645477 56 18271806878132720301
20645477 70 18113898307795903814
21267235 1 18411409609720272690
22485316 2 18409168809333617806
22854114 59 18260267425914902648
23402539 116 18410583876466454358
23402655 69 18260267464585588452
23557571 272 18341889727158205148
23559900 14 18410013277804175446
26918003 58 18334016098880054690
3545911 37 18409728460836460844
4028521 119 18272660086133679757
42 15 18341894099656152722
4214541 1 18410574015327206377
474 4 16199010697133783180
4990 188 18335698377561798446
5104073 3 18410575093321618738
69090 78 18334017176822218687
7364860 26 18268153247948441890
77779 3 18409728456430554856
9709674 26 18410568470561792302

> <PUBCHEM_SHAPE_MULTIPOLES>
298.73
9.11
1.49
0.67
1.13
0.01
0
0.11
-0.05
-0.11
0
0.06
0
0.63

> <PUBCHEM_SHAPE_SELFOVERLAP>
670.523

> <PUBCHEM_SHAPE_VOLUME>
158.9

> <PUBCHEM_COORDINATE_TYPE>
2
5
10

$$$$

