4084
  -OEChem-06251223522D

 44 46  0     1  0  0  0  0  0999 V2000
    9.2365    0.3870    0.0000 S   0  0  0  0  0  0  0  0  0  0  0  0
    6.5715   -1.6347    0.0000 O   0  0  0  0  0  0  0  0  0  0  0  0
    8.8764   -2.9252    0.0000 O   0  0  0  0  0  0  0  0  0  0  0  0
   10.5236   -2.3900    0.0000 O   0  0  0  0  0  0  0  0  0  0  0  0
    5.3442   -0.4315    0.0000 O   0  0  0  0  0  0  0  0  0  0  0  0
    8.2854   -0.9220    0.0000 N   0  0  0  0  0  0  0  0  0  0  0  0
    6.5715    0.7907    0.0000 N   0  0  0  0  0  0  0  0  0  0  0  0
    5.1602    2.2078    0.0000 N   0  0  0  0  0  0  0  0  0  0  0  0
    8.2854    0.0780    0.0000 C   0  0  3  0  0  0  0  0  0  0  0  0
    9.8242   -0.4220    0.0000 C   0  0  0  0  0  0  0  0  0  0  0  0
    9.2365   -1.2310    0.0000 C   0  0  3  0  0  0  0  0  0  0  0  0
    7.2771    0.0821    0.0000 C   0  0  3  0  0  0  0  0  0  0  0  0
    7.2771   -0.9262    0.0000 C   0  0  0  0  0  0  0  0  0  0  0  0
   10.6333    0.1658    0.0000 C   0  0  0  0  0  0  0  0  0  0  0  0
   10.6333   -1.0098    0.0000 C   0  0  0  0  0  0  0  0  0  0  0  0
    9.5455   -2.1821    0.0000 C   0  0  0  0  0  0  0  0  0  0  0  0
    5.6050    0.5338    0.0000 C   0  0  0  0  0  0  0  0  0  0  0  0
    4.8994    1.2424    0.0000 C   0  0  3  0  0  0  0  0  0  0  0  0
    3.9329    0.9856    0.0000 C   0  0  0  0  0  0  0  0  0  0  0  0
    3.2273    1.6941    0.0000 C   0  0  0  0  0  0  0  0  0  0  0  0
    3.6721    0.0202    0.0000 C   0  0  0  0  0  0  0  0  0  0  0  0
    2.2608    1.4373    0.0000 C   0  0  0  0  0  0  0  0  0  0  0  0
    2.7056   -0.2367    0.0000 C   0  0  0  0  0  0  0  0  0  0  0  0
    4.4545    2.9164    0.0000 C   0  0  0  0  0  0  0  0  0  0  0  0
    2.0000    0.4719    0.0000 C   0  0  0  0  0  0  0  0  0  0  0  0
    8.1897    0.6905    0.0000 H   0  0  0  0  0  0  0  0  0  0  0  0
    8.7981   -1.6694    0.0000 H   0  0  0  0  0  0  0  0  0  0  0  0
    6.7041   -0.1546    0.0000 H   0  0  0  0  0  0  0  0  0  0  0  0
   10.9977   -0.3358    0.0000 H   0  0  0  0  0  0  0  0  0  0  0  0
   10.2688   -1.5114    0.0000 H   0  0  0  0  0  0  0  0  0  0  0  0
   11.1349   -1.3742    0.0000 H   0  0  0  0  0  0  0  0  0  0  0  0
   10.9977   -0.5082    0.0000 H   0  0  0  0  0  0  0  0  0  0  0  0
   11.1349    0.5302    0.0000 H   0  0  0  0  0  0  0  0  0  0  0  0
   10.2688    0.6674    0.0000 H   0  0  0  0  0  0  0  0  0  0  0  0
    6.7332    1.3892    0.0000 H   0  0  0  0  0  0  0  0  0  0  0  0
    4.4619    1.6817    0.0000 H   0  0  0  0  0  0  0  0  0  0  0  0
    9.0679   -3.5149    0.0000 H   0  0  0  0  0  0  0  0  0  0  0  0
    3.3890    2.2927    0.0000 H   0  0  0  0  0  0  0  0  0  0  0  0
    4.1096   -0.4191    0.0000 H   0  0  0  0  0  0  0  0  0  0  0  0
    1.8233    1.8766    0.0000 H   0  0  0  0  0  0  0  0  0  0  0  0
    2.5440   -0.8352    0.0000 H   0  0  0  0  0  0  0  0  0  0  0  0
    4.6162    3.5149    0.0000 H   0  0  0  0  0  0  0  0  0  0  0  0
    3.8553    2.7571    0.0000 H   0  0  0  0  0  0  0  0  0  0  0  0
    1.4008    0.3127    0.0000 H   0  0  0  0  0  0  0  0  0  0  0  0
  1  9  1  0  0  0  0
  1 10  1  0  0  0  0
  2 13  2  0  0  0  0
  3 16  1  0  0  0  0
  3 37  1  0  0  0  0
  4 16  2  0  0  0  0
  5 17  2  0  0  0  0
  6  9  1  0  0  0  0
  6 11  1  0  0  0  0
  6 13  1  0  0  0  0
  7 12  1  0  0  0  0
  7 17  1  0  0  0  0
  7 35  1  0  0  0  0
  8 18  1  0  0  0  0
  8 24  2  0  0  0  0
  9 12  1  0  0  0  0
  9 26  1  0  0  0  0
 10 11  1  0  0  0  0
 10 14  1  0  0  0  0
 10 15  1  0  0  0  0
 11 16  1  0  0  0  0
 11 27  1  0  0  0  0
 12 13  1  0  0  0  0
 12 28  1  0  0  0  0
 14 29  1  0  0  0  0
 14 33  1  0  0  0  0
 14 34  1  0  0  0  0
 15 30  1  0  0  0  0
 15 31  1  0  0  0  0
 15 32  1  0  0  0  0
 17 18  1  0  0  0  0
 18 19  1  0  0  0  0
 18 36  1  0  0  0  0
 19 20  2  0  0  0  0
 19 21  1  0  0  0  0
 20 22  1  0  0  0  0
 20 38  1  0  0  0  0
 21 23  2  0  0  0  0
 21 39  1  0  0  0  0
 22 25  2  0  0  0  0
 22 40  1  0  0  0  0
 23 25  1  0  0  0  0
 23 41  1  0  0  0  0
 24 42  1  0  0  0  0
 24 43  1  0  0  0  0
 25 44  1  0  0  0  0
M  END
> <PUBCHEM_COMPOUND_CID>
4084

> <PUBCHEM_COMPOUND_CANONICALIZED>
1

> <PUBCHEM_CACTVS_COMPLEXITY>
603

> <PUBCHEM_CACTVS_HBOND_ACCEPTOR>
6

> <PUBCHEM_CACTVS_HBOND_DONOR>
2

> <PUBCHEM_CACTVS_ROTATABLE_BOND>
5

> <PUBCHEM_CACTVS_SUBSKEYS>
AAADceB7OABAAAAAAAAAAAAAAABYAWAAAAAwAAAABYAAAAABAAAAHgQQCAAADCjF2ASyCIPAAgioAiHTHACCAABgABAIiIGIBIgKYDqglTGUYABklgC4iAcYiICOAAAAAAAAAAAAAAAAAAAAAAAAAAAAAA==

> <PUBCHEM_IUPAC_OPENEYE_NAME>
3,3-dimethyl-6-[[2-(methyleneamino)-2-phenyl-acetyl]amino]-7-oxo-4-thia-1-azabicyclo[3.2.0]heptane-2-carboxylic acid

> <PUBCHEM_IUPAC_CAS_NAME>
3,3-dimethyl-6-[[2-(methyleneamino)-1-oxo-2-phenylethyl]amino]-7-oxo-4-thia-1-azabicyclo[3.2.0]heptane-2-carboxylic acid

> <PUBCHEM_IUPAC_NAME>
3,3-dimethyl-6-[[2-(methylideneamino)-2-phenylacetyl]amino]-7-oxo-4-thia-1-azabicyclo[3.2.0]heptane-2-carboxylic acid

> <PUBCHEM_IUPAC_SYSTEMATIC_NAME>
3,3-dimethyl-6-[[2-(methylideneamino)-2-phenyl-ethanoyl]amino]-7-oxidanylidene-4-thia-1-azabicyclo[3.2.0]heptane-2-carboxylic acid

> <PUBCHEM_IUPAC_TRADITIONAL_NAME>
7-keto-3,3-dimethyl-6-[[2-(methyleneamino)-2-phenyl-acetyl]amino]-4-thia-1-azabicyclo[3.2.0]heptane-2-carboxylic acid

> <PUBCHEM_IUPAC_INCHI>
InChI=1S/C17H19N3O4S/c1-17(2)12(16(23)24)20-14(22)11(15(20)25-17)19-13(21)10(18-3)9-7-5-4-6-8-9/h4-8,10-12,15H,3H2,1-2H3,(H,19,21)(H,23,24)

> <PUBCHEM_IUPAC_INCHIKEY>
FZECHKJQHUVANE-UHFFFAOYSA-N

> <PUBCHEM_XLOGP3>
3

> <PUBCHEM_EXACT_MASS>
361.109627

> <PUBCHEM_MOLECULAR_FORMULA>
C17H19N3O4S

> <PUBCHEM_MOLECULAR_WEIGHT>
361.41546

> <PUBCHEM_OPENEYE_CAN_SMILES>
CC1(C(N2C(S1)C(C2=O)NC(=O)C(C3=CC=CC=C3)N=C)C(=O)O)C

> <PUBCHEM_OPENEYE_ISO_SMILES>
CC1(C(N2C(S1)C(C2=O)NC(=O)C(C3=CC=CC=C3)N=C)C(=O)O)C

> <PUBCHEM_CACTVS_TPSA>
124

> <PUBCHEM_MONOISOTOPIC_WEIGHT>
361.109627

> <PUBCHEM_TOTAL_CHARGE>
0

> <PUBCHEM_HEAVY_ATOM_COUNT>
25

> <PUBCHEM_ATOM_DEF_STEREO_COUNT>
0

> <PUBCHEM_ATOM_UDEF_STEREO_COUNT>
4

> <PUBCHEM_BOND_DEF_STEREO_COUNT>
0

> <PUBCHEM_BOND_UDEF_STEREO_COUNT>
0

> <PUBCHEM_ISOTOPIC_ATOM_COUNT>
0

> <PUBCHEM_COMPONENT_COUNT>
1

> <PUBCHEM_CACTVS_TAUTO_COUNT>
4

> <PUBCHEM_COORDINATE_TYPE>
1
5
255

> <PUBCHEM_BONDANNOTATIONS>
9  1  3
11  16  3
18  17  3
19  20  8
19  21  8
20  22  8
21  23  8
22  25  8
23  25  8
12  7  3

$$$$

