4225
  -OEChem-06251223582D

 53 55  0     1  0  0  0  0  0999 V2000
    4.0281    2.2420    0.0000 S   0  0  0  0  0  0  0  0  0  0  0  0
    2.3644    2.8807    0.0000 S   0  0  0  0  0  0  0  0  0  0  0  0
    7.5397   -1.8512    0.0000 O   0  0  0  0  0  0  0  0  0  0  0  0
    4.9416    0.6488    0.0000 O   0  0  0  0  0  0  0  0  0  0  0  0
    8.4057   -0.3512    0.0000 N   0  0  0  0  0  0  0  0  0  0  0  0
    6.6737    0.6488    0.0000 N   0  0  0  0  0  0  0  0  0  0  0  0
    5.8077    2.1488    0.0000 N   0  0  0  0  0  0  0  0  0  0  0  0
    4.8371    3.6433    0.0000 N   0  0  0  0  0  0  0  0  0  0  0  0
    3.8589    3.8512    0.0000 N   0  0  0  0  0  0  0  0  0  0  0  0
   10.1378   -0.3512    0.0000 C   0  0  0  0  0  0  0  0  0  0  0  0
   10.1378    0.6488    0.0000 C   0  0  0  0  0  0  0  0  0  0  0  0
   11.0038   -0.8512    0.0000 C   0  0  0  0  0  0  0  0  0  0  0  0
   11.0038    1.1488    0.0000 C   0  0  0  0  0  0  0  0  0  0  0  0
   11.8698   -0.3512    0.0000 C   0  0  0  0  0  0  0  0  0  0  0  0
   11.8698    0.6488    0.0000 C   0  0  0  0  0  0  0  0  0  0  0  0
    9.2718   -0.8512    0.0000 C   0  0  0  0  0  0  0  0  0  0  0  0
    7.5397   -0.8512    0.0000 C   0  0  0  0  0  0  0  0  0  0  0  0
    6.6737   -0.3512    0.0000 C   0  0  3  0  0  0  0  0  0  0  0  0
    5.8077   -0.8512    0.0000 C   0  0  0  0  0  0  0  0  0  0  0  0
    5.8077   -1.8512    0.0000 C   0  0  0  0  0  0  0  0  0  0  0  0
    5.8077    1.1488    0.0000 C   0  0  0  0  0  0  0  0  0  0  0  0
    6.6737   -2.3512    0.0000 C   0  0  0  0  0  0  0  0  0  0  0  0
    4.9416   -2.3512    0.0000 C   0  0  0  0  0  0  0  0  0  0  0  0
    6.6737   -3.3512    0.0000 C   0  0  0  0  0  0  0  0  0  0  0  0
    4.9416   -3.3512    0.0000 C   0  0  0  0  0  0  0  0  0  0  0  0
    5.8077   -3.8512    0.0000 C   0  0  0  0  0  0  0  0  0  0  0  0
    4.9416    2.6488    0.0000 C   0  0  0  0  0  0  0  0  0  0  0  0
    3.3589    2.9852    0.0000 C   0  0  0  0  0  0  0  0  0  0  0  0
   10.1378   -0.9712    0.0000 H   0  0  0  0  0  0  0  0  0  0  0  0
    9.9257    1.2314    0.0000 H   0  0  0  0  0  0  0  0  0  0  0  0
    9.5272    0.5411    0.0000 H   0  0  0  0  0  0  0  0  0  0  0  0
   10.6053   -1.3262    0.0000 H   0  0  0  0  0  0  0  0  0  0  0  0
   11.4023   -1.3262    0.0000 H   0  0  0  0  0  0  0  0  0  0  0  0
   11.4023    1.6237    0.0000 H   0  0  0  0  0  0  0  0  0  0  0  0
   10.6053    1.6237    0.0000 H   0  0  0  0  0  0  0  0  0  0  0  0
   12.0819   -0.9338    0.0000 H   0  0  0  0  0  0  0  0  0  0  0  0
   12.4804   -0.2436    0.0000 H   0  0  0  0  0  0  0  0  0  0  0  0
   12.4804    0.5411    0.0000 H   0  0  0  0  0  0  0  0  0  0  0  0
   12.0819    1.2314    0.0000 H   0  0  0  0  0  0  0  0  0  0  0  0
    8.8732   -1.3262    0.0000 H   0  0  0  0  0  0  0  0  0  0  0  0
    9.6703   -1.3262    0.0000 H   0  0  0  0  0  0  0  0  0  0  0  0
    8.4057    0.2688    0.0000 H   0  0  0  0  0  0  0  0  0  0  0  0
    7.2106   -0.0412    0.0000 H   0  0  0  0  0  0  0  0  0  0  0  0
    5.5956   -0.2686    0.0000 H   0  0  0  0  0  0  0  0  0  0  0  0
    5.1971   -0.9589    0.0000 H   0  0  0  0  0  0  0  0  0  0  0  0
    7.2106    0.9588    0.0000 H   0  0  0  0  0  0  0  0  0  0  0  0
    7.2106   -2.0412    0.0000 H   0  0  0  0  0  0  0  0  0  0  0  0
    4.4047   -2.0412    0.0000 H   0  0  0  0  0  0  0  0  0  0  0  0
    7.2106   -3.6612    0.0000 H   0  0  0  0  0  0  0  0  0  0  0  0
    4.4047   -3.6612    0.0000 H   0  0  0  0  0  0  0  0  0  0  0  0
    5.8077   -4.4712    0.0000 H   0  0  0  0  0  0  0  0  0  0  0  0
    6.3446    2.4588    0.0000 H   0  0  0  0  0  0  0  0  0  0  0  0
    2.0000    3.3823    0.0000 H   0  0  0  0  0  0  0  0  0  0  0  0
  1 27  1  0  0  0  0
  1 28  1  0  0  0  0
  2 28  1  0  0  0  0
  2 53  1  0  0  0  0
  3 17  2  0  0  0  0
  4 21  2  0  0  0  0
  5 16  1  0  0  0  0
  5 17  1  0  0  0  0
  5 42  1  0  0  0  0
  6 18  1  0  0  0  0
  6 21  1  0  0  0  0
  6 46  1  0  0  0  0
  7 21  1  0  0  0  0
  7 27  1  0  0  0  0
  7 52  1  0  0  0  0
  8  9  1  0  0  0  0
  8 27  2  0  0  0  0
  9 28  2  0  0  0  0
 10 11  1  0  0  0  0
 10 12  1  0  0  0  0
 10 16  1  0  0  0  0
 10 29  1  0  0  0  0
 11 13  1  0  0  0  0
 11 30  1  0  0  0  0
 11 31  1  0  0  0  0
 12 14  1  0  0  0  0
 12 32  1  0  0  0  0
 12 33  1  0  0  0  0
 13 15  1  0  0  0  0
 13 34  1  0  0  0  0
 13 35  1  0  0  0  0
 14 15  1  0  0  0  0
 14 36  1  0  0  0  0
 14 37  1  0  0  0  0
 15 38  1  0  0  0  0
 15 39  1  0  0  0  0
 16 40  1  0  0  0  0
 16 41  1  0  0  0  0
 17 18  1  0  0  0  0
 18 19  1  0  0  0  0
 18 43  1  0  0  0  0
 19 20  1  0  0  0  0
 19 44  1  0  0  0  0
 19 45  1  0  0  0  0
 20 22  2  0  0  0  0
 20 23  1  0  0  0  0
 22 24  1  0  0  0  0
 22 47  1  0  0  0  0
 23 25  2  0  0  0  0
 23 48  1  0  0  0  0
 24 26  2  0  0  0  0
 24 49  1  0  0  0  0
 25 26  1  0  0  0  0
 25 50  1  0  0  0  0
 26 51  1  0  0  0  0
M  END
> <PUBCHEM_COMPOUND_CID>
4225

> <PUBCHEM_COMPOUND_CANONICALIZED>
1

> <PUBCHEM_CACTVS_COMPLEXITY>
513

> <PUBCHEM_CACTVS_HBOND_ACCEPTOR>
6

> <PUBCHEM_CACTVS_HBOND_DONOR>
4

> <PUBCHEM_CACTVS_ROTATABLE_BOND>
7

> <PUBCHEM_CACTVS_SUBSKEYS>
AAADceB7sABgAAAAAAAAAAAAAAAAAWAAAAAwYAAAAAAAAAABwAAAHgQYAAAADSjBmAQxEILAAAyuAiFSMAESAQJgAAkNiIGIAIiIYDKAkTGUIAA4lwKIiAcYiICOAAAAAAAAAAAAAAAAAAAAAAAAAAAAAA==

> <PUBCHEM_IUPAC_OPENEYE_NAME>
N-(cyclohexylmethyl)-3-phenyl-2-[(5-sulfanyl-1,3,4-thiadiazol-2-yl)carbamoylamino]propanamide

> <PUBCHEM_IUPAC_CAS_NAME>
N-(cyclohexylmethyl)-2-[[[(5-mercapto-1,3,4-thiadiazol-2-yl)amino]-oxomethyl]amino]-3-phenylpropanamide

> <PUBCHEM_IUPAC_NAME>
N-(cyclohexylmethyl)-3-phenyl-2-[(5-sulfanyl-1,3,4-thiadiazol-2-yl)carbamoylamino]propanamide

> <PUBCHEM_IUPAC_SYSTEMATIC_NAME>
N-(cyclohexylmethyl)-3-phenyl-2-[(5-sulfanyl-1,3,4-thiadiazol-2-yl)carbamoylamino]propanamide

> <PUBCHEM_IUPAC_TRADITIONAL_NAME>
N-(cyclohexylmethyl)-2-[(5-mercapto-1,3,4-thiadiazol-2-yl)carbamoylamino]-3-phenyl-propionamide

> <PUBCHEM_IUPAC_INCHI>
InChI=1S/C19H25N5O2S2/c25-16(20-12-14-9-5-2-6-10-14)15(11-13-7-3-1-4-8-13)21-17(26)22-18-23-24-19(27)28-18/h1,3-4,7-8,14-15H,2,5-6,9-12H2,(H,20,25)(H,24,27)(H2,21,22,23,26)

> <PUBCHEM_IUPAC_INCHIKEY>
QMRMTXPZBMQCIT-UHFFFAOYSA-N

> <PUBCHEM_XLOGP3_AA>
3.9

> <PUBCHEM_EXACT_MASS>
419.144967

> <PUBCHEM_MOLECULAR_FORMULA>
C19H25N5O2S2

> <PUBCHEM_MOLECULAR_WEIGHT>
419.5641

> <PUBCHEM_OPENEYE_CAN_SMILES>
C1CCC(CC1)CNC(=O)C(CC2=CC=CC=C2)NC(=O)NC3=NN=C(S3)S

> <PUBCHEM_OPENEYE_ISO_SMILES>
C1CCC(CC1)CNC(=O)C(CC2=CC=CC=C2)NC(=O)NC3=NN=C(S3)S

> <PUBCHEM_CACTVS_TPSA>
125

> <PUBCHEM_MONOISOTOPIC_WEIGHT>
419.144967

> <PUBCHEM_TOTAL_CHARGE>
0

> <PUBCHEM_HEAVY_ATOM_COUNT>
28

> <PUBCHEM_ATOM_DEF_STEREO_COUNT>
0

> <PUBCHEM_ATOM_UDEF_STEREO_COUNT>
1

> <PUBCHEM_BOND_DEF_STEREO_COUNT>
0

> <PUBCHEM_BOND_UDEF_STEREO_COUNT>
0

> <PUBCHEM_ISOTOPIC_ATOM_COUNT>
0

> <PUBCHEM_COMPONENT_COUNT>
1

> <PUBCHEM_CACTVS_TAUTO_COUNT>
20

> <PUBCHEM_COORDINATE_TYPE>
1
5
255

> <PUBCHEM_BONDANNOTATIONS>
1  27  8
1  28  8
20  22  8
20  23  8
22  24  8
23  25  8
24  26  8
25  26  8
18  6  3
8  27  8
8  9  8
9  28  8

$$$$

