11975
  -OEChem-06261206212D

 24 22  0     0  0  0  0  0  0999 V2000
    0.0000    2.9650    0.0000 Cl  0  0  0  0  0  0  0  0  0  0  0  0
    5.2020    0.0000    0.0000 Cl  0  0  0  0  0  0  0  0  0  0  0  0
    4.4030    5.1200    0.0000 O   0  0  0  0  0  0  0  0  0  0  0  0
    6.1350    6.1200    0.0000 N   0  0  0  0  0  0  0  0  0  0  0  0
    7.8671    3.1200    0.0000 N   0  0  0  0  0  0  0  0  0  0  0  0
    6.1350    5.1200    0.0000 C   0  0  0  0  0  0  0  0  0  0  0  0
    5.2690    4.6200    0.0000 C   0  0  0  0  0  0  0  0  0  0  0  0
    7.0010    3.6200    0.0000 C   0  0  0  0  0  0  0  0  0  0  0  0
    7.0010    4.6200    0.0000 C   0  0  0  0  0  0  0  0  0  0  0  0
    5.2690    3.6200    0.0000 C   0  0  0  0  0  0  0  0  0  0  0  0
    6.1350    3.1200    0.0000 C   0  0  0  0  0  0  0  0  0  0  0  0
    3.5369    4.6200    0.0000 C   0  0  0  0  0  0  0  0  0  0  0  0
    7.5380    4.9300    0.0000 H   0  0  0  0  0  0  0  0  0  0  0  0
    4.7320    3.3100    0.0000 H   0  0  0  0  0  0  0  0  0  0  0  0
    6.1350    2.5000    0.0000 H   0  0  0  0  0  0  0  0  0  0  0  0
    6.6720    6.4300    0.0000 H   0  0  0  0  0  0  0  0  0  0  0  0
    5.5981    6.4300    0.0000 H   0  0  0  0  0  0  0  0  0  0  0  0
    7.8671    2.5000    0.0000 H   0  0  0  0  0  0  0  0  0  0  0  0
    8.4040    3.4300    0.0000 H   0  0  0  0  0  0  0  0  0  0  0  0
    3.2269    5.1569    0.0000 H   0  0  0  0  0  0  0  0  0  0  0  0
    3.0000    4.3100    0.0000 H   0  0  0  0  0  0  0  0  0  0  0  0
    3.8469    4.0831    0.0000 H   0  0  0  0  0  0  0  0  0  0  0  0
    1.0000    2.9650    0.0000 H   0  0  0  0  0  0  0  0  0  0  0  0
    6.2020    0.0000    0.0000 H   0  0  0  0  0  0  0  0  0  0  0  0
  1 23  1  0  0  0  0
  2 24  1  0  0  0  0
  3  7  1  0  0  0  0
  3 12  1  0  0  0  0
  4  6  1  0  0  0  0
  4 16  1  0  0  0  0
  4 17  1  0  0  0  0
  5  8  1  0  0  0  0
  5 18  1  0  0  0  0
  5 19  1  0  0  0  0
  6  7  2  0  0  0  0
  6  9  1  0  0  0  0
  7 10  1  0  0  0  0
  8  9  2  0  0  0  0
  8 11  1  0  0  0  0
  9 13  1  0  0  0  0
 10 11  2  0  0  0  0
 10 14  1  0  0  0  0
 11 15  1  0  0  0  0
 12 20  1  0  0  0  0
 12 21  1  0  0  0  0
 12 22  1  0  0  0  0
M  END
> <PUBCHEM_COMPOUND_CID>
11975

> <PUBCHEM_COMPOUND_CANONICALIZED>
1

> <PUBCHEM_CACTVS_COMPLEXITY>
108

> <PUBCHEM_CACTVS_HBOND_ACCEPTOR>
3

> <PUBCHEM_CACTVS_HBOND_DONOR>
4

> <PUBCHEM_CACTVS_ROTATABLE_BOND>
1

> <PUBCHEM_CACTVS_SUBSKEYS>
AAADccBjIAAGAAAAAAAAAAAAAAAAAAAAAAAwAAAAAAAAAAABAAAAHgAQAAAACAyBkAIyxoBABACAACRCQACCCAAgIgAIiAAHbIgOJiKE8duBMCBk0BEI6AewQAAAAEAAAAQAEAAAgAAACAAgAAAAAAAAAA==

> <PUBCHEM_IUPAC_OPENEYE_NAME>
4-methoxybenzene-1,3-diamine dihydrochloride

> <PUBCHEM_IUPAC_CAS_NAME>
4-methoxybenzene-1,3-diamine dihydrochloride

> <PUBCHEM_IUPAC_NAME>
4-methoxybenzene-1,3-diamine dihydrochloride

> <PUBCHEM_IUPAC_SYSTEMATIC_NAME>
4-methoxybenzene-1,3-diamine dihydrochloride

> <PUBCHEM_IUPAC_TRADITIONAL_NAME>
(3-amino-4-methoxy-phenyl)amine dihydrochloride

> <PUBCHEM_IUPAC_INCHI>
InChI=1S/C7H10N2O.2ClH/c1-10-7-3-2-5(8)4-6(7)9;;/h2-4H,8-9H2,1H3;2*1H

> <PUBCHEM_IUPAC_INCHIKEY>
FNGHHDCBSVSOOI-UHFFFAOYSA-N

> <PUBCHEM_EXACT_MASS>
210.032668

> <PUBCHEM_MOLECULAR_FORMULA>
C7H12Cl2N2O

> <PUBCHEM_MOLECULAR_WEIGHT>
211.08898

> <PUBCHEM_OPENEYE_CAN_SMILES>
COC1=C(C=C(C=C1)N)N.Cl.Cl

> <PUBCHEM_OPENEYE_ISO_SMILES>
COC1=C(C=C(C=C1)N)N.Cl.Cl

> <PUBCHEM_CACTVS_TPSA>
61.3

> <PUBCHEM_MONOISOTOPIC_WEIGHT>
210.032668

> <PUBCHEM_TOTAL_CHARGE>
0

> <PUBCHEM_HEAVY_ATOM_COUNT>
12

> <PUBCHEM_ATOM_DEF_STEREO_COUNT>
0

> <PUBCHEM_ATOM_UDEF_STEREO_COUNT>
0

> <PUBCHEM_BOND_DEF_STEREO_COUNT>
0

> <PUBCHEM_BOND_UDEF_STEREO_COUNT>
0

> <PUBCHEM_ISOTOPIC_ATOM_COUNT>
0

> <PUBCHEM_COMPONENT_COUNT>
3

> <PUBCHEM_CACTVS_TAUTO_COUNT>
1

> <PUBCHEM_COORDINATE_TYPE>
1
5
255

> <PUBCHEM_BONDANNOTATIONS>
10  11  8
6  7  8
6  9  8
7  10  8
8  11  8
8  9  8

$$$$

