17395561
  -OEChem-06241222513D

 37 37  0     0  0  0  0  0  0999 V2000
    5.3707   -1.1007    0.8324 F   0  0  0  0  0  0  0  0  0  0  0  0
    0.2363   -0.2864   -0.9757 O   0  0  0  0  0  0  0  0  0  0  0  0
   -2.1833    0.8929   -0.9365 O   0  0  0  0  0  0  0  0  0  0  0  0
    0.8937    2.3160   -0.8996 O   0  0  0  0  0  0  0  0  0  0  0  0
   -3.1050   -0.8340    0.3184 N   0  0  0  0  0  0  0  0  0  0  0  0
   -4.4506   -0.2985    0.4179 C   0  0  0  0  0  0  0  0  0  0  0  0
   -5.3222   -1.2656    1.2272 C   0  0  0  0  0  0  0  0  0  0  0  0
   -4.3973    1.0628    1.1194 C   0  0  0  0  0  0  0  0  0  0  0  0
   -5.0361   -0.1345   -0.9894 C   0  0  0  0  0  0  0  0  0  0  0  0
   -2.0871   -0.1843   -0.3548 C   0  0  0  0  0  0  0  0  0  0  0  0
   -0.7946   -0.9700   -0.2954 C   0  0  0  0  0  0  0  0  0  0  0  0
    1.5203   -0.4739   -0.5211 C   0  0  0  0  0  0  0  0  0  0  0  0
    2.2835    0.6017   -0.0670 C   0  0  0  0  0  0  0  0  0  0  0  0
    2.0579   -1.7611   -0.5181 C   0  0  0  0  0  0  0  0  0  0  0  0
    3.5843    0.3901    0.3903 C   0  0  0  0  0  0  0  0  0  0  0  0
    1.7417    1.9535   -0.0616 C   0  0  0  0  0  0  0  0  0  0  0  0
    3.3584   -1.9727   -0.0610 C   0  0  0  0  0  0  0  0  0  0  0  0
    4.1216   -0.8973    0.3934 C   0  0  0  0  0  0  0  0  0  0  0  0
    2.2078    2.9620    0.9814 C   0  0  0  0  0  0  0  0  0  0  0  0
   -5.3655   -2.2518    0.7507 H   0  0  0  0  0  0  0  0  0  0  0  0
   -4.9194   -1.4099    2.2365 H   0  0  0  0  0  0  0  0  0  0  0  0
   -6.3482   -0.8939    1.3248 H   0  0  0  0  0  0  0  0  0  0  0  0
   -3.8751    1.8270    0.5362 H   0  0  0  0  0  0  0  0  0  0  0  0
   -3.8910    0.9873    2.0890 H   0  0  0  0  0  0  0  0  0  0  0  0
   -5.4086    1.4440    1.3037 H   0  0  0  0  0  0  0  0  0  0  0  0
   -4.5153    0.6208   -1.5854 H   0  0  0  0  0  0  0  0  0  0  0  0
   -4.9931   -1.0779   -1.5465 H   0  0  0  0  0  0  0  0  0  0  0  0
   -6.0873    0.1728   -0.9393 H   0  0  0  0  0  0  0  0  0  0  0  0
   -2.9073   -1.7263    0.7631 H   0  0  0  0  0  0  0  0  0  0  0  0
   -0.9569   -1.9436   -0.7718 H   0  0  0  0  0  0  0  0  0  0  0  0
   -0.5404   -1.1226    0.7618 H   0  0  0  0  0  0  0  0  0  0  0  0
    1.4782   -2.6075   -0.8764 H   0  0  0  0  0  0  0  0  0  0  0  0
    4.2081    1.2088    0.7376 H   0  0  0  0  0  0  0  0  0  0  0  0
    3.7779   -2.9744   -0.0601 H   0  0  0  0  0  0  0  0  0  0  0  0
    3.0844    3.4970    0.6081 H   0  0  0  0  0  0  0  0  0  0  0  0
    2.4379    2.4649    1.9276 H   0  0  0  0  0  0  0  0  0  0  0  0
    1.3999    3.6745    1.1737 H   0  0  0  0  0  0  0  0  0  0  0  0
  1 18  1  0  0  0  0
  2 11  1  0  0  0  0
  2 12  1  0  0  0  0
  3 10  2  0  0  0  0
  4 16  2  0  0  0  0
  5  6  1  0  0  0  0
  5 10  1  0  0  0  0
  5 29  1  0  0  0  0
  6  7  1  0  0  0  0
  6  8  1  0  0  0  0
  6  9  1  0  0  0  0
  7 20  1  0  0  0  0
  7 21  1  0  0  0  0
  7 22  1  0  0  0  0
  8 23  1  0  0  0  0
  8 24  1  0  0  0  0
  8 25  1  0  0  0  0
  9 26  1  0  0  0  0
  9 27  1  0  0  0  0
  9 28  1  0  0  0  0
 10 11  1  0  0  0  0
 11 30  1  0  0  0  0
 11 31  1  0  0  0  0
 12 13  2  0  0  0  0
 12 14  1  0  0  0  0
 13 15  1  0  0  0  0
 13 16  1  0  0  0  0
 14 17  2  0  0  0  0
 14 32  1  0  0  0  0
 15 18  2  0  0  0  0
 15 33  1  0  0  0  0
 16 19  1  0  0  0  0
 17 18  1  0  0  0  0
 17 34  1  0  0  0  0
 19 35  1  0  0  0  0
 19 36  1  0  0  0  0
 19 37  1  0  0  0  0
M  END
> <PUBCHEM_COMPOUND_CID>
17395561

> <PUBCHEM_CONFORMER_RMSD>
0.8

> <PUBCHEM_CONFORMER_DIVERSEORDER>
1
105
97
96
43
4
34
58
72
85
82
86
16
41
35
88
99
89
31
18
40
83
87
65
53
101
14
84
27
102
98
106
68
39
51
100
3
47
5
11
32
15
57
66
67
71
45
29
95
107
2
19
42
77
9
94
78
74
90
75
60
81
80
37
28
20
49
93
92
55
12
79
62
103
38
7
10
25
17
52
8
63
59
69
44
64
56
50
104
76
30
22
23
6
21
48
54
13
61
36
24
33
26
91
70
46
73

> <PUBCHEM_MMFF94_PARTIAL_CHARGES>
20
1 -0.19
10 0.57
11 0.34
12 0.08
13 0.09
14 -0.15
15 -0.15
16 0.42
17 -0.15
18 0.19
19 0.06
2 -0.36
29 0.37
3 -0.57
32 0.15
33 0.15
34 0.15
4 -0.57
5 -0.73
6 0.3

> <PUBCHEM_EFFECTIVE_ROTOR_COUNT>
6

> <PUBCHEM_PHARMACOPHORE_FEATURES>
6
1 2 acceptor
1 3 acceptor
1 4 acceptor
1 5 donor
4 6 7 8 9 hydrophobe
6 12 13 14 15 17 18 rings

> <PUBCHEM_HEAVY_ATOM_COUNT>
19

> <PUBCHEM_ATOM_DEF_STEREO_COUNT>
0

> <PUBCHEM_ATOM_UDEF_STEREO_COUNT>
0

> <PUBCHEM_BOND_DEF_STEREO_COUNT>
0

> <PUBCHEM_BOND_UDEF_STEREO_COUNT>
0

> <PUBCHEM_ISOTOPIC_ATOM_COUNT>
0

> <PUBCHEM_COMPONENT_COUNT>
1

> <PUBCHEM_CACTVS_TAUTO_COUNT>
4

> <PUBCHEM_CONFORMER_ID>
01096F6900000001

> <PUBCHEM_MMFF94_ENERGY>
55.1626

> <PUBCHEM_FEATURE_SELFOVERLAP>
30.46

> <PUBCHEM_SHAPE_FINGERPRINT>
10366900 7 18202273697919127243
10688039 33 18130508629788008156
11405975 8 18412537709420257667
11545043 162 17632857525674011793
11796584 16 16845017917124325578
12236239 1 17313107462215427902
12251169 10 18334576832424856831
12507557 5 18333732442339629929
12616971 3 17967809419507834887
12633257 1 18411418401608030963
12670546 177 8862938343226263081
13140716 1 18264214604092304298
13533116 47 18337386046706898155
13583140 156 18342464755240268055
13899415 154 18334847308797248820
13911852 28 18194689387039072918
14252887 29 18261672683649137070
14341114 176 18410284800945931675
14790565 3 17836361554272213700
15527383 91 18411139130160383732
15885798 251 18270962452954265526
16752209 62 14907910353559917511
18785283 64 18269836415693404660
19050596 39 18187078417564660663
21033648 29 17917165935207167549
21041028 32 18335139825433764232
21065201 7 17132122329603567431
21267235 1 18410569626493271598
21637258 2 15984834752668895378
23184049 59 18334016103043270214
23402539 116 18260557752961732727
23558518 356 17980206279424412246
23559900 14 17704073975925870911
26918003 58 18342458157964506451
3286 77 18341890788262877829
3472631 163 14634875244967493603
351380 180 18409732867947510803
42 15 18273493489824360471
5104073 3 18337662032746904307
5895379 119 15358234049039492592
7495541 125 18201715128695171706
960060 61 11167668629577259131
9971528 1 17895468228262582622

> <PUBCHEM_SHAPE_MULTIPOLES>
361.15
11.34
2.34
1.06
9.87
1.53
-0.05
-3.3
-3.48
-2.49
-0.29
0.74
0.12
0.22

> <PUBCHEM_SHAPE_SELFOVERLAP>
741.965

> <PUBCHEM_SHAPE_VOLUME>
209.7

> <PUBCHEM_COORDINATE_TYPE>
2
5
10

$$$$

