6467
  -OEChem-06261201203D

 42 45  0     1  0  0  0  0  0999 V2000
   -4.3713    0.2235    1.0720 O   0  0  0  0  0  0  0  0  0  0  0  0
    2.9053    1.1213    0.1647 N   0  0  2  0  0  0  0  0  0  0  0  0
    0.4897   -0.7698    0.7235 C   0  0  2  0  0  0  0  0  0  0  0  0
    1.4514   -0.6658   -0.4538 C   0  0  2  0  0  0  0  0  0  0  0  0
    1.6329    0.8738   -0.4941 C   0  0  2  0  0  0  0  0  0  0  0  0
    1.2900   -0.0905    1.9385 C   0  0  0  0  0  0  0  0  0  0  0  0
    0.2179   -2.2647    1.0147 C   0  0  0  0  0  0  0  0  0  0  0  0
    1.0092   -1.4294   -1.7164 C   0  0  0  0  0  0  0  0  0  0  0  0
   -0.7958    0.0416    0.2750 C   0  0  0  0  0  0  0  0  0  0  0  0
    0.6141    1.4740   -1.4399 C   0  0  0  0  0  0  0  0  0  0  0  0
    2.7422    0.5290    1.5602 C   0  0  0  0  0  0  0  0  0  0  0  0
   -0.2284   -3.0509   -0.2229 C   0  0  0  0  0  0  0  0  0  0  0  0
    0.7576   -2.9000   -1.3803 C   0  0  0  0  0  0  0  0  0  0  0  0
   -0.7414    1.0331   -0.7945 C   0  0  0  0  0  0  0  0  0  0  0  0
   -2.0283   -0.1907    0.8980 C   0  0  0  0  0  0  0  0  0  0  0  0
    3.2666    2.5330    0.2049 C   0  0  0  0  0  0  0  0  0  0  0  0
   -1.9106    1.6731   -1.2180 C   0  0  0  0  0  0  0  0  0  0  0  0
   -3.1783    0.4731    0.4618 C   0  0  0  0  0  0  0  0  0  0  0  0
   -3.1226    1.3862   -0.5933 C   0  0  0  0  0  0  0  0  0  0  0  0
    2.3990   -1.1639   -0.1926 H   0  0  0  0  0  0  0  0  0  0  0  0
    1.1241    1.3971    0.3314 H   0  0  0  0  0  0  0  0  0  0  0  0
    1.4493   -0.8203    2.7418 H   0  0  0  0  0  0  0  0  0  0  0  0
    0.6795    0.7124    2.3732 H   0  0  0  0  0  0  0  0  0  0  0  0
   -0.5186   -2.3893    1.8155 H   0  0  0  0  0  0  0  0  0  0  0  0
    1.1415   -2.7293    1.3874 H   0  0  0  0  0  0  0  0  0  0  0  0
    1.7918   -1.3557   -2.4807 H   0  0  0  0  0  0  0  0  0  0  0  0
    0.0959   -1.0319   -2.1674 H   0  0  0  0  0  0  0  0  0  0  0  0
    0.7092    1.1251   -2.4715 H   0  0  0  0  0  0  0  0  0  0  0  0
    0.6737    2.5693   -1.4369 H   0  0  0  0  0  0  0  0  0  0  0  0
    3.0085    1.2610    2.3329 H   0  0  0  0  0  0  0  0  0  0  0  0
    3.4767   -0.2823    1.6415 H   0  0  0  0  0  0  0  0  0  0  0  0
   -1.2225   -2.7181   -0.5428 H   0  0  0  0  0  0  0  0  0  0  0  0
   -0.3223   -4.1117    0.0367 H   0  0  0  0  0  0  0  0  0  0  0  0
    1.7067   -3.3824   -1.1155 H   0  0  0  0  0  0  0  0  0  0  0  0
    0.3729   -3.4205   -2.2646 H   0  0  0  0  0  0  0  0  0  0  0  0
   -2.1122   -0.8919    1.7230 H   0  0  0  0  0  0  0  0  0  0  0  0
    4.2416    2.6597    0.6878 H   0  0  0  0  0  0  0  0  0  0  0  0
    2.5339    3.1418    0.7468 H   0  0  0  0  0  0  0  0  0  0  0  0
    3.3609    2.9305   -0.8114 H   0  0  0  0  0  0  0  0  0  0  0  0
   -1.8791    2.4097   -2.0160 H   0  0  0  0  0  0  0  0  0  0  0  0
   -4.0220    1.8970   -0.9282 H   0  0  0  0  0  0  0  0  0  0  0  0
   -5.0616    0.7628    0.6493 H   0  0  0  0  0  0  0  0  0  0  0  0
  1 18  1  0  0  0  0
  1 42  1  0  0  0  0
  2  5  1  0  0  0  0
  2 11  1  0  0  0  0
  2 16  1  0  0  0  0
  3  4  1  0  0  0  0
  3  6  1  0  0  0  0
  3  7  1  0  0  0  0
  3  9  1  0  0  0  0
  4  5  1  0  0  0  0
  4  8  1  0  0  0  0
  4 20  1  0  0  0  0
  5 10  1  0  0  0  0
  5 21  1  0  0  0  0
  6 11  1  0  0  0  0
  6 22  1  0  0  0  0
  6 23  1  0  0  0  0
  7 12  1  0  0  0  0
  7 24  1  0  0  0  0
  7 25  1  0  0  0  0
  8 13  1  0  0  0  0
  8 26  1  0  0  0  0
  8 27  1  0  0  0  0
  9 14  2  0  0  0  0
  9 15  1  0  0  0  0
 10 14  1  0  0  0  0
 10 28  1  0  0  0  0
 10 29  1  0  0  0  0
 11 30  1  0  0  0  0
 11 31  1  0  0  0  0
 12 13  1  0  0  0  0
 12 32  1  0  0  0  0
 12 33  1  0  0  0  0
 13 34  1  0  0  0  0
 13 35  1  0  0  0  0
 14 17  1  0  0  0  0
 15 18  2  0  0  0  0
 15 36  1  0  0  0  0
 16 37  1  0  0  0  0
 16 38  1  0  0  0  0
 16 39  1  0  0  0  0
 17 19  2  0  0  0  0
 17 40  1  0  0  0  0
 18 19  1  0  0  0  0
 19 41  1  0  0  0  0
M  END
> <PUBCHEM_COMPOUND_CID>
6467

> <PUBCHEM_CONFORMER_RMSD>
0.6

> <PUBCHEM_CONFORMER_DIVERSEORDER>
1

> <PUBCHEM_MMFF94_PARTIAL_CHARGES>
17
1 -0.53
10 0.14
11 0.27
14 -0.14
15 -0.15
16 0.27
17 -0.15
18 0.08
19 -0.15
2 -0.81
3 0.14
36 0.15
40 0.15
41 0.15
42 0.45
5 0.27
9 -0.14

> <PUBCHEM_EFFECTIVE_ROTOR_COUNT>
1.6

> <PUBCHEM_PHARMACOPHORE_FEATURES>
6
1 1 donor
1 2 cation
6 2 3 4 5 6 11 rings
6 3 4 5 9 10 14 rings
6 3 4 7 8 12 13 rings
6 9 14 15 17 18 19 rings

> <PUBCHEM_HEAVY_ATOM_COUNT>
19

> <PUBCHEM_ATOM_DEF_STEREO_COUNT>
3

> <PUBCHEM_ATOM_UDEF_STEREO_COUNT>
0

> <PUBCHEM_BOND_DEF_STEREO_COUNT>
0

> <PUBCHEM_BOND_UDEF_STEREO_COUNT>
0

> <PUBCHEM_ISOTOPIC_ATOM_COUNT>
0

> <PUBCHEM_COMPONENT_COUNT>
1

> <PUBCHEM_CACTVS_TAUTO_COUNT>
3

> <PUBCHEM_CONFORMER_ID>
0000194300000001

> <PUBCHEM_MMFF94_ENERGY>
132.4793

> <PUBCHEM_FEATURE_SELFOVERLAP>
31.315

> <PUBCHEM_SHAPE_FINGERPRINT>
10863032 1 17313106315221542918
10871710 139 16901854632570984020
10922049 32 18411417306728714172
10948715 1 18334573503835563288
11067466 332 17488723684180681853
12035758 1 18336543906668031106
12326174 3 17826247455665216702
12423570 1 12442747503463967442
13132413 78 16100235820369117109
13681431 1 17610061535304419022
141345 1 7601788760622808062
14142880 1 17690014340179468320
14178342 30 18058725939869803065
14617773 55 17622764970856087338
14817 1 7375694316224013486
15309172 13 18410862040076432333
15852999 172 18261665995910089098
15906896 17 18123761854725509466
16945 1 17628946661134192568
1813 80 16374364384527441798
19786989 88 18334575763136034617
20600515 1 16764240302788504502
21524375 3 18337399240255548848
21731228 192 18410581643231192328
22112679 90 17257921599043043494
22802520 49 17837767095113852341
23419403 2 16884644191814442046
25 1 17530961371727306440
2748010 2 17843682407642075893
3729539 64 18118938491231608670
427121 178 18187356606559028819
4340502 62 18040709256585198291
458136 41 18187918486933730803
495365 180 18046645657176082557
576247 118 17179402690491061143
5845 1 15727302976823485406
7364860 26 18194122043190754095
81228 2 17688335402981969162
84936 31 17896895454189650271

> <PUBCHEM_SHAPE_MULTIPOLES>
380.16
4.71
2.91
1.67
3.27
1.89
0.06
-3.43
1.53
-1.26
-0.98
-0.37
0.27
0.67

> <PUBCHEM_SHAPE_SELFOVERLAP>
822.997

> <PUBCHEM_SHAPE_VOLUME>
207.8

> <PUBCHEM_COORDINATE_TYPE>
2
5
10

$$$$

