4964
  -OEChem-06261200263D

 18 18  0     0  0  0  0  0  0999 V2000
   -4.4373    0.4990    0.0522 Br  0  0  0  0  0  0  0  0  0  0  0  0
    3.9006    0.2763    0.0152 O   0  0  0  0  0  0  0  0  0  0  0  0
   -2.1900   -1.4276   -0.0225 O   0  0  0  0  0  0  0  0  0  0  0  0
   -0.2286   -0.1447   -0.0076 C   0  0  0  0  0  0  0  0  0  0  0  0
    0.3426    1.1278   -0.0130 C   0  0  0  0  0  0  0  0  0  0  0  0
    0.5878   -1.2757    0.0049 C   0  0  0  0  0  0  0  0  0  0  0  0
   -1.6757   -0.2916   -0.0142 C   0  0  0  0  0  0  0  0  0  0  0  0
    1.7302    1.2693   -0.0061 C   0  0  0  0  0  0  0  0  0  0  0  0
    1.9755   -1.1340    0.0120 C   0  0  0  0  0  0  0  0  0  0  0  0
    2.5466    0.1384    0.0065 C   0  0  0  0  0  0  0  0  0  0  0  0
   -2.5516    0.9628   -0.0272 C   0  0  0  0  0  0  0  0  0  0  0  0
   -0.2524    2.0354   -0.0249 H   0  0  0  0  0  0  0  0  0  0  0  0
    0.1681   -2.2781    0.0098 H   0  0  0  0  0  0  0  0  0  0  0  0
    2.1635    2.2660   -0.0107 H   0  0  0  0  0  0  0  0  0  0  0  0
    2.6065   -2.0187    0.0223 H   0  0  0  0  0  0  0  0  0  0  0  0
   -2.3620    1.5786    0.8547 H   0  0  0  0  0  0  0  0  0  0  0  0
   -2.4130    1.5215   -0.9553 H   0  0  0  0  0  0  0  0  0  0  0  0
    4.1208    1.2237    0.0100 H   0  0  0  0  0  0  0  0  0  0  0  0
  1 11  1  0  0  0  0
  2 10  1  0  0  0  0
  2 18  1  0  0  0  0
  3  7  2  0  0  0  0
  4  5  2  0  0  0  0
  4  6  1  0  0  0  0
  4  7  1  0  0  0  0
  5  8  1  0  0  0  0
  5 12  1  0  0  0  0
  6  9  2  0  0  0  0
  6 13  1  0  0  0  0
  7 11  1  0  0  0  0
  8 10  2  0  0  0  0
  8 14  1  0  0  0  0
  9 10  1  0  0  0  0
  9 15  1  0  0  0  0
 11 16  1  0  0  0  0
 11 17  1  0  0  0  0
M  END
> <PUBCHEM_COMPOUND_CID>
4964

> <PUBCHEM_CONFORMER_RMSD>
0.4

> <PUBCHEM_CONFORMER_DIVERSEORDER>
1
12
13
2
11
4
10
3
7
8
6
5
9

> <PUBCHEM_MMFF94_PARTIAL_CHARGES>
16
1 -0.23
10 0.08
11 0.29
12 0.15
13 0.15
14 0.15
15 0.15
18 0.45
2 -0.53
3 -0.57
4 0.09
5 -0.15
6 -0.15
7 0.42
8 -0.15
9 -0.15

> <PUBCHEM_EFFECTIVE_ROTOR_COUNT>
2

> <PUBCHEM_PHARMACOPHORE_FEATURES>
4
1 1 hydrophobe
1 2 donor
1 3 acceptor
6 4 5 6 8 9 10 rings

> <PUBCHEM_HEAVY_ATOM_COUNT>
11

> <PUBCHEM_ATOM_DEF_STEREO_COUNT>
0

> <PUBCHEM_ATOM_UDEF_STEREO_COUNT>
0

> <PUBCHEM_BOND_DEF_STEREO_COUNT>
0

> <PUBCHEM_BOND_UDEF_STEREO_COUNT>
0

> <PUBCHEM_ISOTOPIC_ATOM_COUNT>
0

> <PUBCHEM_COMPONENT_COUNT>
1

> <PUBCHEM_CACTVS_TAUTO_COUNT>
7

> <PUBCHEM_CONFORMER_ID>
0000136400000001

> <PUBCHEM_MMFF94_ENERGY>
27.9844

> <PUBCHEM_FEATURE_SELFOVERLAP>
20.297

> <PUBCHEM_SHAPE_FINGERPRINT>
10219947 1 18410290341247949993
11062470 55 17313105263097005873
11471102 20 18410858797560467469
12932764 1 17203623561614057175
13380535 76 18410292519165978487
14144814 61 18409728508371173665
14325111 11 18338798914146825516
14897335 6 18408889538044180751
15775835 57 18411416206895281109
16945 1 18411140263783765084
17844478 74 17917988425644320981
20201158 50 18411136956706432939
20645477 70 18266464381134954263
20871998 22 17974569409800048870
21040471 1 18266741277486090350
23235685 24 18410862065809079009
23402539 116 18041006163274038333
23402655 69 18262809574556469509
23552423 10 18271807873910667302
2748010 2 18266178318615901260
528886 8 18410016537103922674
53812653 166 18335707130525754208

> <PUBCHEM_SHAPE_MULTIPOLES>
220.58
6.46
1.42
0.61
3.91
0.15
0
-1.08
0.1
-0.14
-0.01
0.08
-0.01
-0.01

> <PUBCHEM_SHAPE_SELFOVERLAP>
443.7

> <PUBCHEM_SHAPE_VOLUME>
133.5

> <PUBCHEM_COORDINATE_TYPE>
2
5
10

$$$$

