4988
  -OEChem-06261200273D

 52 55  0     1  0  0  0  0  0999 V2000
   -0.8808   -1.5222    0.3826 O   0  0  0  0  0  0  0  0  0  0  0  0
   -5.4075    1.7974   -0.1343 O   0  0  0  0  0  0  0  0  0  0  0  0
   -5.3328   -0.4215    1.5127 O   0  0  0  0  0  0  0  0  0  0  0  0
    1.5087    0.5819   -0.1849 C   0  0  2  0  0  0  0  0  0  0  0  0
    2.7121   -0.4220   -0.0950 C   0  0  1  0  0  0  0  0  0  0  0  0
    0.4143   -0.0750   -1.1337 C   0  0  1  0  0  0  0  0  0  0  0  0
    4.0584    0.1249    0.5043 C   0  0  0  0  0  0  0  0  0  0  0  0
   -0.0052   -1.5291   -0.7627 C   0  0  1  0  0  0  0  0  0  0  0  0
    2.2424   -1.7586    0.5047 C   0  0  0  0  0  0  0  0  0  0  0  0
    2.0128    1.9018   -0.8350 C   0  0  0  0  0  0  0  0  0  0  0  0
    1.2069   -2.4157   -0.4035 C   0  0  0  0  0  0  0  0  0  0  0  0
    4.4035    1.4857   -0.1503 C   0  0  0  0  0  0  0  0  0  0  0  0
    3.2527    2.4829   -0.1606 C   0  0  0  0  0  0  0  0  0  0  0  0
    0.8994    0.9350    1.1971 C   0  0  0  0  0  0  0  0  0  0  0  0
   -0.8340    0.7707   -1.2500 C   0  0  0  0  0  0  0  0  0  0  0  0
    4.0746    0.2543    2.0393 C   0  0  0  0  0  0  0  0  0  0  0  0
    5.2168   -0.8451    0.1428 C   0  0  0  0  0  0  0  0  0  0  0  0
   -0.7246   -2.2489   -1.9347 C   0  0  0  0  0  0  0  0  0  0  0  0
   -1.9658    0.4580   -0.5926 C   0  0  0  0  0  0  0  0  0  0  0  0
   -2.0051   -0.7174    0.2743 C   0  0  0  0  0  0  0  0  0  0  0  0
   -3.1455    1.2972   -0.7237 C   0  0  0  0  0  0  0  0  0  0  0  0
   -3.1089   -1.0078    0.9758 C   0  0  0  0  0  0  0  0  0  0  0  0
   -4.2695    1.0269   -0.0418 C   0  0  0  0  0  0  0  0  0  0  0  0
   -4.3230   -0.1537    0.8693 C   0  0  0  0  0  0  0  0  0  0  0  0
    2.9679   -0.6447   -1.1448 H   0  0  0  0  0  0  0  0  0  0  0  0
    0.8550   -0.1280   -2.1405 H   0  0  0  0  0  0  0  0  0  0  0  0
    1.8346   -1.6316    1.5119 H   0  0  0  0  0  0  0  0  0  0  0  0
    3.0781   -2.4581    0.6042 H   0  0  0  0  0  0  0  0  0  0  0  0
    1.2231    2.6630   -0.8239 H   0  0  0  0  0  0  0  0  0  0  0  0
    2.2507    1.7222   -1.8921 H   0  0  0  0  0  0  0  0  0  0  0  0
    1.7235   -2.7203   -1.3238 H   0  0  0  0  0  0  0  0  0  0  0  0
    0.8619   -3.3370    0.0838 H   0  0  0  0  0  0  0  0  0  0  0  0
    4.7122    1.3189   -1.1917 H   0  0  0  0  0  0  0  0  0  0  0  0
    5.2674    1.9404    0.3515 H   0  0  0  0  0  0  0  0  0  0  0  0
    3.5657    3.3805   -0.7077 H   0  0  0  0  0  0  0  0  0  0  0  0
    3.0242    2.8151    0.8568 H   0  0  0  0  0  0  0  0  0  0  0  0
    1.6014    1.4441    1.8536 H   0  0  0  0  0  0  0  0  0  0  0  0
    0.0589    1.6303    1.0981 H   0  0  0  0  0  0  0  0  0  0  0  0
    0.5357    0.0612    1.7405 H   0  0  0  0  0  0  0  0  0  0  0  0
   -0.7826    1.6509   -1.8858 H   0  0  0  0  0  0  0  0  0  0  0  0
    3.7361   -0.6636    2.5293 H   0  0  0  0  0  0  0  0  0  0  0  0
    5.0930    0.4489    2.3987 H   0  0  0  0  0  0  0  0  0  0  0  0
    3.4711    1.0821    2.4088 H   0  0  0  0  0  0  0  0  0  0  0  0
    5.2379   -1.0605   -0.9314 H   0  0  0  0  0  0  0  0  0  0  0  0
    6.1890   -0.4119    0.4074 H   0  0  0  0  0  0  0  0  0  0  0  0
    5.1369   -1.7975    0.6760 H   0  0  0  0  0  0  0  0  0  0  0  0
   -0.0697   -2.3369   -2.8084 H   0  0  0  0  0  0  0  0  0  0  0  0
   -1.0346   -3.2562   -1.6318 H   0  0  0  0  0  0  0  0  0  0  0  0
   -1.6363   -1.7373   -2.2576 H   0  0  0  0  0  0  0  0  0  0  0  0
   -3.1005    2.1572   -1.3857 H   0  0  0  0  0  0  0  0  0  0  0  0
   -3.1574   -1.8692    1.6326 H   0  0  0  0  0  0  0  0  0  0  0  0
   -5.2304    2.5243   -0.7562 H   0  0  0  0  0  0  0  0  0  0  0  0
  1  8  1  0  0  0  0
  1 20  1  0  0  0  0
  2 23  1  0  0  0  0
  2 52  1  0  0  0  0
  3 24  2  0  0  0  0
  4  5  1  0  0  0  0
  4  6  1  0  0  0  0
  4 10  1  0  0  0  0
  4 14  1  0  0  0  0
  5  7  1  0  0  0  0
  5  9  1  0  0  0  0
  5 25  1  0  0  0  0
  6  8  1  0  0  0  0
  6 15  1  0  0  0  0
  6 26  1  0  0  0  0
  7 12  1  0  0  0  0
  7 16  1  0  0  0  0
  7 17  1  0  0  0  0
  8 11  1  0  0  0  0
  8 18  1  0  0  0  0
  9 11  1  0  0  0  0
  9 27  1  0  0  0  0
  9 28  1  0  0  0  0
 10 13  1  0  0  0  0
 10 29  1  0  0  0  0
 10 30  1  0  0  0  0
 11 31  1  0  0  0  0
 11 32  1  0  0  0  0
 12 13  1  0  0  0  0
 12 33  1  0  0  0  0
 12 34  1  0  0  0  0
 13 35  1  0  0  0  0
 13 36  1  0  0  0  0
 14 37  1  0  0  0  0
 14 38  1  0  0  0  0
 14 39  1  0  0  0  0
 15 19  2  0  0  0  0
 15 40  1  0  0  0  0
 16 41  1  0  0  0  0
 16 42  1  0  0  0  0
 16 43  1  0  0  0  0
 17 44  1  0  0  0  0
 17 45  1  0  0  0  0
 17 46  1  0  0  0  0
 18 47  1  0  0  0  0
 18 48  1  0  0  0  0
 18 49  1  0  0  0  0
 19 20  1  0  0  0  0
 19 21  1  0  0  0  0
 20 22  2  0  0  0  0
 21 23  2  0  0  0  0
 21 50  1  0  0  0  0
 22 24  1  0  0  0  0
 22 51  1  0  0  0  0
 23 24  1  0  0  0  0
M  END
> <PUBCHEM_COMPOUND_CID>
4988

> <PUBCHEM_CONFORMER_RMSD>
0.6

> <PUBCHEM_CONFORMER_DIVERSEORDER>
2
4
14
6
15
17
8
22
13
20
19
10
3
5
16
18
7
1
11
21
12
9

> <PUBCHEM_MMFF94_PARTIAL_CHARGES>
15
1 -0.36
15 -0.29
2 -0.53
20 0.08
21 -0.15
22 -0.14
23 0.09
24 0.54
3 -0.57
40 0.15
50 0.15
51 0.15
52 0.45
6 0.14
8 0.28

> <PUBCHEM_EFFECTIVE_ROTOR_COUNT>
1.4

> <PUBCHEM_PHARMACOPHORE_FEATURES>
8
1 1 acceptor
1 2 donor
1 3 acceptor
3 7 16 17 hydrophobe
6 1 6 8 15 19 20 rings
6 19 20 21 22 23 24 rings
6 4 5 6 8 9 11 rings
6 4 5 7 10 12 13 rings

> <PUBCHEM_HEAVY_ATOM_COUNT>
24

> <PUBCHEM_ATOM_DEF_STEREO_COUNT>
0

> <PUBCHEM_ATOM_UDEF_STEREO_COUNT>
4

> <PUBCHEM_BOND_DEF_STEREO_COUNT>
0

> <PUBCHEM_BOND_UDEF_STEREO_COUNT>
0

> <PUBCHEM_ISOTOPIC_ATOM_COUNT>
0

> <PUBCHEM_COMPONENT_COUNT>
1

> <PUBCHEM_CACTVS_TAUTO_COUNT>
3

> <PUBCHEM_CONFORMER_ID>
0000137C00000002

> <PUBCHEM_MMFF94_ENERGY>
91.5064

> <PUBCHEM_FEATURE_SELFOVERLAP>
40.692

> <PUBCHEM_SHAPE_FINGERPRINT>
10493431 412 18338239254586674404
10498660 4 14201675420614150691
10863032 1 18272369741579835282
10948715 1 18410854322083271150
11045977 3 17988922279737443003
11089746 13 16950573194112370392
12011746 2 18340204201834522366
12236239 1 16370731460801950367
12251169 10 18343864411518606703
12403259 118 18412271618504931977
12507560 40 18201435857110588973
12592029 89 18413103978892950738
12633257 1 17989496233281110336
12670546 177 6411300126144146553
12670546 56 17989213598805680321
12788726 201 17318746664054721070
12892183 10 17846780672062777073
13140716 1 18340779130778850960
13544653 18 11743847949352322247
13583140 156 17202228320134493100
13675066 3 18334862692953280858
14341114 176 18131345297869851784
14790565 3 17769080251724997652
14955137 171 18341895225517858988
15196674 1 18341894069507024636
15209289 33 16487258763633132240
15295992 7 17750238023494741392
1601671 61 18341611546996117788
16945 1 18342179968437414838
17980427 23 18201716233250873397
1813 80 14549018779674110862
18222031 100 13326574025487874649
19784866 9 18408603673436827032
20261772 1 18410858733199261566
204376 136 18113616776989658991
20775530 9 14331472806659152296
21033648 29 17969241056139839752
21033650 10 14635685576547521674
21756936 100 17980756044344946604
22079108 93 17313101909097001291
22182313 1 18193846066152030030
22854114 59 18409446998834212459
23184049 59 18410295821932246532
23227448 37 18339080389081585207
23558518 356 17684100084086014662
23559900 14 18268987768325189055
2748010 2 17977682123191711062
335352 9 18410858793735031470
350125 39 18117561734452612791
4340502 62 17676194768004118623
465052 167 17989200443505560010
474 4 18335421309168727333
49207404 50 18343293756509933435
5104073 3 18202568349818852200
7164475 11 17754190686393119470
7226269 152 17749111067675082832
8272917 22 18262517116688707599
9999458 23 18343863325387688342

> <PUBCHEM_SHAPE_MULTIPOLES>
476.3
10.04
2.32
1.41
4.41
0.27
0.15
-3.47
3.72
-0.75
-0.68
0.13
0.25
0.14

> <PUBCHEM_SHAPE_SELFOVERLAP>
1028.842

> <PUBCHEM_SHAPE_VOLUME>
259

> <PUBCHEM_COORDINATE_TYPE>
2
5
10

$$$$

