5609
  -OEChem-06261200462D

147150  0     1  0  0  0  0  0999 V2000
   13.6244    1.2290    0.0000 O   0  0  0  0  0  0  0  0  0  0  0  0
   15.6244    2.9610    0.0000 O   0  0  0  0  0  0  0  0  0  0  0  0
   14.2583    4.3270    0.0000 O   0  0  0  0  0  0  0  0  0  0  0  0
   15.6244   -0.5031    0.0000 O   0  0  0  0  0  0  0  0  0  0  0  0
   12.3923    0.3629    0.0000 O   0  0  0  0  0  0  0  0  0  0  0  0
   16.4904    6.1931    0.0000 O   0  0  0  0  0  0  0  0  0  0  0  0
   15.1244    6.8270    0.0000 O   0  0  0  0  0  0  0  0  0  0  0  0
   12.3160   -2.8881    0.0000 O   0  0  0  0  0  0  0  0  0  0  0  0
    8.9282   -2.6370    0.0000 O   0  0  0  0  0  0  0  0  0  0  0  0
   11.5263    2.8630    0.0000 O   0  0  0  0  0  0  0  0  0  0  0  0
    5.4641   -5.6370    0.0000 O   0  0  0  0  0  0  0  0  0  0  0  0
    8.0622   -1.1370    0.0000 O   0  0  0  0  0  0  0  0  0  0  0  0
    6.3301   -4.1370    0.0000 O   0  0  0  0  0  0  0  0  0  0  0  0
   10.1529   -3.8618    0.0000 O   0  0  0  0  0  0  0  0  0  0  0  0
    2.8660   -4.1370    0.0000 O   0  0  0  0  0  0  0  0  0  0  0  0
    4.5981   -3.1370    0.0000 O   0  0  0  0  0  0  0  0  0  0  0  0
    2.8660   -6.1370    0.0000 O   0  0  0  0  0  0  0  0  0  0  0  0
   16.6244    1.2290    0.0000 N   0  0  0  0  0  0  0  0  0  0  0  0
   15.6244    1.2290    0.0000 C   0  0  3  0  0  0  0  0  0  0  0  0
   15.1244    2.0950    0.0000 C   0  0  3  0  0  0  0  0  0  0  0  0
   14.1244    0.3629    0.0000 C   0  0  3  0  0  0  0  0  0  0  0  0
   15.1244    0.3629    0.0000 C   0  0  3  0  0  0  0  0  0  0  0  0
   14.1244    2.0950    0.0000 C   0  0  3  0  0  0  0  0  0  0  0  0
   15.1244    3.8270    0.0000 C   0  0  3  0  0  0  0  0  0  0  0  0
   15.9904    4.3270    0.0000 C   0  0  0  0  0  0  0  0  0  0  0  0
   15.9904    5.3270    0.0000 C   0  0  3  0  0  0  0  0  0  0  0  0
   13.2583   -0.1371    0.0000 C   0  0  0  0  0  0  0  0  0  0  0  0
   15.1244    5.8270    0.0000 C   0  0  3  0  0  0  0  0  0  0  0  0
   14.1244   -0.6371    0.0000 C   0  0  0  0  0  0  0  0  0  0  0  0
   14.2583    5.3270    0.0000 C   0  0  3  0  0  0  0  0  0  0  0  0
   13.6244    2.9610    0.0000 C   0  0  0  0  0  0  0  0  0  0  0  0
   14.6244    2.9610    0.0000 C   0  0  0  0  0  0  0  0  0  0  0  0
   11.5263   -0.1371    0.0000 C   0  0  3  0  0  0  0  0  0  0  0  0
   16.9904    5.3270    0.0000 C   0  0  0  0  0  0  0  0  0  0  0  0
   17.1244    0.3629    0.0000 C   0  0  0  0  0  0  0  0  0  0  0  0
   17.1244    2.0950    0.0000 C   0  0  0  0  0  0  0  0  0  0  0  0
   10.6603    0.3629    0.0000 C   0  0  3  0  0  0  0  0  0  0  0  0
   13.3923    5.8270    0.0000 C   0  0  0  0  0  0  0  0  0  0  0  0
   11.5263   -1.1370    0.0000 C   0  0  0  0  0  0  0  0  0  0  0  0
    9.7942   -0.1371    0.0000 C   0  0  0  0  0  0  0  0  0  0  0  0
   10.6603    1.3630    0.0000 C   0  0  0  0  0  0  0  0  0  0  0  0
   11.6012   -2.1888    0.0000 C   0  0  3  0  0  0  0  0  0  0  0  0
    8.9282    0.3629    0.0000 C   0  0  3  0  0  0  0  0  0  0  0  0
   10.6012   -2.1888    0.0000 C   0  0  0  0  0  0  0  0  0  0  0  0
    8.9282    1.3630    0.0000 C   0  0  0  0  0  0  0  0  0  0  0  0
   11.5263    1.8630    0.0000 C   0  0  0  0  0  0  0  0  0  0  0  0
    8.0622   -0.1371    0.0000 C   0  0  0  0  0  0  0  0  0  0  0  0
    9.8941   -2.8959    0.0000 C   0  0  0  0  0  0  0  0  0  0  0  0
    8.0622   -3.1370    0.0000 C   0  0  3  0  0  0  0  0  0  0  0  0
    7.1962   -2.6370    0.0000 C   0  0  3  0  0  0  0  0  0  0  0  0
    7.1962    0.3629    0.0000 C   0  0  0  0  0  0  0  0  0  0  0  0
    3.7320   -4.6370    0.0000 C   0  0  3  0  0  0  0  0  0  0  0  0
    4.5981   -4.1370    0.0000 C   0  0  3  0  0  0  0  0  0  0  0  0
    5.4641   -4.6370    0.0000 C   0  0  3  0  0  0  0  0  0  0  0  0
    3.7320   -5.6370    0.0000 C   0  0  3  0  0  0  0  0  0  0  0  0
    4.5981   -6.1370    0.0000 C   0  0  3  0  0  0  0  0  0  0  0  0
    6.3301   -3.1370    0.0000 C   0  0  0  0  0  0  0  0  0  0  0  0
    8.0622   -4.1370    0.0000 C   0  0  0  0  0  0  0  0  0  0  0  0
    7.1962   -1.6370    0.0000 C   0  0  0  0  0  0  0  0  0  0  0  0
    6.3301   -0.1371    0.0000 C   0  0  0  0  0  0  0  0  0  0  0  0
    6.3301   -1.1370    0.0000 C   0  0  0  0  0  0  0  0  0  0  0  0
    4.5981   -7.1370    0.0000 C   0  0  0  0  0  0  0  0  0  0  0  0
    8.9282   -4.6370    0.0000 C   0  0  0  0  0  0  0  0  0  0  0  0
    5.4641   -1.6370    0.0000 C   0  0  0  0  0  0  0  0  0  0  0  0
    2.0000   -4.6370    0.0000 C   0  0  0  0  0  0  0  0  0  0  0  0
    3.7320   -2.6370    0.0000 C   0  0  0  0  0  0  0  0  0  0  0  0
   16.0494    0.4929    0.0000 H   0  0  0  0  0  0  0  0  0  0  0  0
   15.9744    2.0950    0.0000 H   0  0  0  0  0  0  0  0  0  0  0  0
   14.6994   -0.3732    0.0000 H   0  0  0  0  0  0  0  0  0  0  0  0
   13.2744    2.0950    0.0000 H   0  0  0  0  0  0  0  0  0  0  0  0
   16.2024    3.7444    0.0000 H   0  0  0  0  0  0  0  0  0  0  0  0
   16.6010    4.4347    0.0000 H   0  0  0  0  0  0  0  0  0  0  0  0
   12.8598   -0.6120    0.0000 H   0  0  0  0  0  0  0  0  0  0  0  0
   13.6569   -0.6120    0.0000 H   0  0  0  0  0  0  0  0  0  0  0  0
   14.3882    6.2520    0.0000 H   0  0  0  0  0  0  0  0  0  0  0  0
   13.5044   -0.6371    0.0000 H   0  0  0  0  0  0  0  0  0  0  0  0
   14.1244   -1.2570    0.0000 H   0  0  0  0  0  0  0  0  0  0  0  0
   14.7444   -0.6371    0.0000 H   0  0  0  0  0  0  0  0  0  0  0  0
   13.5222    4.9020    0.0000 H   0  0  0  0  0  0  0  0  0  0  0  0
   14.1613    3.2710    0.0000 H   0  0  0  0  0  0  0  0  0  0  0  0
   13.3144    3.4980    0.0000 H   0  0  0  0  0  0  0  0  0  0  0  0
   13.0874    2.6510    0.0000 H   0  0  0  0  0  0  0  0  0  0  0  0
   14.0874    3.2710    0.0000 H   0  0  0  0  0  0  0  0  0  0  0  0
   14.3144    2.4241    0.0000 H   0  0  0  0  0  0  0  0  0  0  0  0
   15.1613    2.6510    0.0000 H   0  0  0  0  0  0  0  0  0  0  0  0
   15.3144   -1.0400    0.0000 H   0  0  0  0  0  0  0  0  0  0  0  0
   12.2624   -0.5621    0.0000 H   0  0  0  0  0  0  0  0  0  0  0  0
   16.9904    4.7070    0.0000 H   0  0  0  0  0  0  0  0  0  0  0  0
   17.6104    5.3270    0.0000 H   0  0  0  0  0  0  0  0  0  0  0  0
   16.9904    5.9470    0.0000 H   0  0  0  0  0  0  0  0  0  0  0  0
   17.6613    1.7850    0.0000 H   0  0  0  0  0  0  0  0  0  0  0  0
   16.5874    0.0529    0.0000 H   0  0  0  0  0  0  0  0  0  0  0  0
   17.4344    2.6319    0.0000 H   0  0  0  0  0  0  0  0  0  0  0  0
   16.5874    2.4050    0.0000 H   0  0  0  0  0  0  0  0  0  0  0  0
   17.4344   -0.1740    0.0000 H   0  0  0  0  0  0  0  0  0  0  0  0
   17.6613    0.6729    0.0000 H   0  0  0  0  0  0  0  0  0  0  0  0
   11.3964    0.7879    0.0000 H   0  0  0  0  0  0  0  0  0  0  0  0
   13.7023    6.3640    0.0000 H   0  0  0  0  0  0  0  0  0  0  0  0
   12.8554    6.1370    0.0000 H   0  0  0  0  0  0  0  0  0  0  0  0
   13.0823    5.2901    0.0000 H   0  0  0  0  0  0  0  0  0  0  0  0
   16.1804    6.7300    0.0000 H   0  0  0  0  0  0  0  0  0  0  0  0
   10.9821   -0.8399    0.0000 H   0  0  0  0  0  0  0  0  0  0  0  0
   12.1459   -1.1150    0.0000 H   0  0  0  0  0  0  0  0  0  0  0  0
   14.5874    7.1370    0.0000 H   0  0  0  0  0  0  0  0  0  0  0  0
    9.3957   -0.6120    0.0000 H   0  0  0  0  0  0  0  0  0  0  0  0
   10.1928   -0.6120    0.0000 H   0  0  0  0  0  0  0  0  0  0  0  0
   10.4482    1.9456    0.0000 H   0  0  0  0  0  0  0  0  0  0  0  0
   10.0497    1.2553    0.0000 H   0  0  0  0  0  0  0  0  0  0  0  0
   12.3725   -1.8315    0.0000 H   0  0  0  0  0  0  0  0  0  0  0  0
    9.6643    0.7879    0.0000 H   0  0  0  0  0  0  0  0  0  0  0  0
   10.7617   -1.5899    0.0000 H   0  0  0  0  0  0  0  0  0  0  0  0
   10.0643   -1.8788    0.0000 H   0  0  0  0  0  0  0  0  0  0  0  0
    9.5482    1.3630    0.0000 H   0  0  0  0  0  0  0  0  0  0  0  0
    8.9282    1.9830    0.0000 H   0  0  0  0  0  0  0  0  0  0  0  0
    8.3082    1.3630    0.0000 H   0  0  0  0  0  0  0  0  0  0  0  0
   12.0632    1.5530    0.0000 H   0  0  0  0  0  0  0  0  0  0  0  0
   12.9131   -2.7211    0.0000 H   0  0  0  0  0  0  0  0  0  0  0  0
    8.7983   -3.5620    0.0000 H   0  0  0  0  0  0  0  0  0  0  0  0
    6.4600   -2.2120    0.0000 H   0  0  0  0  0  0  0  0  0  0  0  0
    3.7320   -3.7870    0.0000 H   0  0  0  0  0  0  0  0  0  0  0  0
    5.3342   -3.7120    0.0000 H   0  0  0  0  0  0  0  0  0  0  0  0
    7.1962    0.9829    0.0000 H   0  0  0  0  0  0  0  0  0  0  0  0
    3.7320   -6.4870    0.0000 H   0  0  0  0  0  0  0  0  0  0  0  0
    5.4641   -3.7870    0.0000 H   0  0  0  0  0  0  0  0  0  0  0  0
    5.3342   -6.5620    0.0000 H   0  0  0  0  0  0  0  0  0  0  0  0
    6.1181   -2.5544    0.0000 H   0  0  0  0  0  0  0  0  0  0  0  0
    5.7196   -3.2447    0.0000 H   0  0  0  0  0  0  0  0  0  0  0  0
    7.4516   -4.0294    0.0000 H   0  0  0  0  0  0  0  0  0  0  0  0
    7.8501   -4.7197    0.0000 H   0  0  0  0  0  0  0  0  0  0  0  0
    7.7331   -1.3270    0.0000 H   0  0  0  0  0  0  0  0  0  0  0  0
    5.7932    0.1729    0.0000 H   0  0  0  0  0  0  0  0  0  0  0  0
    3.9781   -7.1370    0.0000 H   0  0  0  0  0  0  0  0  0  0  0  0
    4.5981   -7.7570    0.0000 H   0  0  0  0  0  0  0  0  0  0  0  0
    5.2181   -7.1370    0.0000 H   0  0  0  0  0  0  0  0  0  0  0  0
    8.6182   -5.1740    0.0000 H   0  0  0  0  0  0  0  0  0  0  0  0
    9.4651   -4.9470    0.0000 H   0  0  0  0  0  0  0  0  0  0  0  0
    9.2382   -4.1001    0.0000 H   0  0  0  0  0  0  0  0  0  0  0  0
    2.8660   -6.7570    0.0000 H   0  0  0  0  0  0  0  0  0  0  0  0
    5.1541   -1.1001    0.0000 H   0  0  0  0  0  0  0  0  0  0  0  0
    4.9272   -1.9470    0.0000 H   0  0  0  0  0  0  0  0  0  0  0  0
    5.7741   -2.1740    0.0000 H   0  0  0  0  0  0  0  0  0  0  0  0
    1.6900   -4.1001    0.0000 H   0  0  0  0  0  0  0  0  0  0  0  0
    1.4631   -4.9470    0.0000 H   0  0  0  0  0  0  0  0  0  0  0  0
    2.3100   -5.1740    0.0000 H   0  0  0  0  0  0  0  0  0  0  0  0
    4.0420   -2.1001    0.0000 H   0  0  0  0  0  0  0  0  0  0  0  0
    3.1951   -2.3270    0.0000 H   0  0  0  0  0  0  0  0  0  0  0  0
    3.4220   -3.1740    0.0000 H   0  0  0  0  0  0  0  0  0  0  0  0
  1 21  1  0  0  0  0
  1 23  1  0  0  0  0
  2 20  1  0  0  0  0
  2 24  1  0  0  0  0
  3 24  1  0  0  0  0
  3 30  1  0  0  0  0
  4 22  1  0  0  0  0
  4 86  1  0  0  0  0
  5 27  1  0  0  0  0
  5 33  1  0  0  0  0
  6 26  1  0  0  0  0
  6101  1  0  0  0  0
  7 28  1  0  0  0  0
  7104  1  0  0  0  0
  8 42  1  0  0  0  0
  8117  1  0  0  0  0
  9 48  1  0  0  0  0
  9 49  1  0  0  0  0
 10 46  2  0  0  0  0
 11 54  1  0  0  0  0
 11 56  1  0  0  0  0
 12 47  2  0  0  0  0
 13 54  1  0  0  0  0
 13 57  1  0  0  0  0
 14 48  2  0  0  0  0
 15 52  1  0  0  0  0
 15 65  1  0  0  0  0
 16 53  1  0  0  0  0
 16 66  1  0  0  0  0
 17 55  1  0  0  0  0
 17138  1  0  0  0  0
 18 19  1  0  0  0  0
 18 35  1  0  0  0  0
 18 36  1  0  0  0  0
 19 20  1  0  0  0  0
 19 22  1  0  0  0  0
 19 67  1  0  0  0  0
 20 23  1  0  0  0  0
 20 68  1  0  0  0  0
 21 22  1  0  0  0  0
 21 27  1  0  0  0  0
 21 29  1  0  0  0  0
 22 69  1  0  0  0  0
 23 31  1  0  0  0  0
 23 70  1  0  0  0  0
 24 25  1  0  0  0  0
 24 32  1  0  0  0  0
 25 26  1  0  0  0  0
 25 71  1  0  0  0  0
 25 72  1  0  0  0  0
 26 28  1  0  0  0  0
 26 34  1  0  0  0  0
 27 73  1  0  0  0  0
 27 74  1  0  0  0  0
 28 30  1  0  0  0  0
 28 75  1  0  0  0  0
 29 76  1  0  0  0  0
 29 77  1  0  0  0  0
 29 78  1  0  0  0  0
 30 38  1  0  0  0  0
 30 79  1  0  0  0  0
 31 80  1  0  0  0  0
 31 81  1  0  0  0  0
 31 82  1  0  0  0  0
 32 83  1  0  0  0  0
 32 84  1  0  0  0  0
 32 85  1  0  0  0  0
 33 37  1  0  0  0  0
 33 39  1  0  0  0  0
 33 87  1  0  0  0  0
 34 88  1  0  0  0  0
 34 89  1  0  0  0  0
 34 90  1  0  0  0  0
 35 92  1  0  0  0  0
 35 95  1  0  0  0  0
 35 96  1  0  0  0  0
 36 91  1  0  0  0  0
 36 93  1  0  0  0  0
 36 94  1  0  0  0  0
 37 40  1  0  0  0  0
 37 41  1  0  0  0  0
 37 97  1  0  0  0  0
 38 98  1  0  0  0  0
 38 99  1  0  0  0  0
 38100  1  0  0  0  0
 39 42  1  0  0  0  0
 39102  1  0  0  0  0
 39103  1  0  0  0  0
 40 43  1  0  0  0  0
 40105  1  0  0  0  0
 40106  1  0  0  0  0
 41 46  1  0  0  0  0
 41107  1  0  0  0  0
 41108  1  0  0  0  0
 42 44  1  0  0  0  0
 42109  1  0  0  0  0
 43 45  1  0  0  0  0
 43 47  1  0  0  0  0
 43110  1  0  0  0  0
 44 48  1  0  0  0  0
 44111  1  0  0  0  0
 44112  1  0  0  0  0
 45113  1  0  0  0  0
 45114  1  0  0  0  0
 45115  1  0  0  0  0
 46116  1  0  0  0  0
 47 51  1  0  0  0  0
 49 50  1  0  0  0  0
 49 58  1  0  0  0  0
 49118  1  0  0  0  0
 50 57  1  0  0  0  0
 50 59  1  0  0  0  0
 50119  1  0  0  0  0
 51 60  2  3  0  0  0
 51122  1  0  0  0  0
 52 53  1  0  0  0  0
 52 55  1  0  0  0  0
 52120  1  0  0  0  0
 53 54  1  0  0  0  0
 53121  1  0  0  0  0
 54124  1  0  0  0  0
 55 56  1  0  0  0  0
 55123  1  0  0  0  0
 56 62  1  0  0  0  0
 56125  1  0  0  0  0
 57126  1  0  0  0  0
 57127  1  0  0  0  0
 58 63  1  0  0  0  0
 58128  1  0  0  0  0
 58129  1  0  0  0  0
 59 61  2  3  0  0  0
 59130  1  0  0  0  0
 60 61  1  0  0  0  0
 60131  1  0  0  0  0
 61 64  1  0  0  0  0
 62132  1  0  0  0  0
 62133  1  0  0  0  0
 62134  1  0  0  0  0
 63135  1  0  0  0  0
 63136  1  0  0  0  0
 63137  1  0  0  0  0
 64139  1  0  0  0  0
 64140  1  0  0  0  0
 64141  1  0  0  0  0
 65142  1  0  0  0  0
 65143  1  0  0  0  0
 65144  1  0  0  0  0
 66145  1  0  0  0  0
 66146  1  0  0  0  0
 66147  1  0  0  0  0
M  END
> <PUBCHEM_COMPOUND_CID>
5609

> <PUBCHEM_COMPOUND_CANONICALIZED>
1

> <PUBCHEM_CACTVS_COMPLEXITY>
1650

> <PUBCHEM_CACTVS_HBOND_ACCEPTOR>
18

> <PUBCHEM_CACTVS_HBOND_DONOR>
5

> <PUBCHEM_CACTVS_ROTATABLE_BOND>
14

> <PUBCHEM_CACTVS_SUBSKEYS>
AAADcfB+PgAAAAAAAAAAAAAAAAAAAAAAAAAkSJAAAAAAAAAAAAAAHgAACAAADXzxgAcCCAMABgCIAqjSiAAAAAAgAAAICAEIAEgbEBYAgQAnQAAH4AAfgYPq7PzOAAAAAAAAAAAAAAAAAAAAAAAAAAAAAA==

> <PUBCHEM_IUPAC_OPENEYE_NAME>
2-[6-[[5-(4,5-dihydroxy-2,4,6-trimethyl-tetrahydropyran-2-yl)oxy-4-(dimethylamino)-3-hydroxy-2,6-dimethyl-tetrahydropyran-2-yl]methoxy]-16-ethyl-4-hydroxy-15-[(5-hydroxy-3,4-dimethoxy-6-methyl-tetrahydropyran-2-yl)oxymethyl]-9,13-dimethyl-2,10-dioxo-1-oxacyclohexadeca-11,13-dien-7-yl]acetaldehyde

> <PUBCHEM_IUPAC_CAS_NAME>
2-[6-[[5-[(4,5-dihydroxy-2,4,6-trimethyl-2-oxanyl)oxy]-4-(dimethylamino)-3-hydroxy-2,6-dimethyl-2-oxanyl]methoxy]-16-ethyl-4-hydroxy-15-[(5-hydroxy-3,4-dimethoxy-6-methyl-2-oxanyl)oxymethyl]-9,13-dimethyl-2,10-dioxo-1-oxacyclohexadeca-11,13-dien-7-yl]acetaldehyde

> <PUBCHEM_IUPAC_NAME>
2-[6-[[5-(4,5-dihydroxy-2,4,6-trimethyloxan-2-yl)oxy-4-(dimethylamino)-3-hydroxy-2,6-dimethyloxan-2-yl]methoxy]-16-ethyl-4-hydroxy-15-[(5-hydroxy-3,4-dimethoxy-6-methyloxan-2-yl)oxymethyl]-9,13-dimethyl-2,10-dioxo-1-oxacyclohexadeca-11,13-dien-7-yl]acetaldehyde

> <PUBCHEM_IUPAC_SYSTEMATIC_NAME>
2-[15-[(3,4-dimethoxy-6-methyl-5-oxidanyl-oxan-2-yl)oxymethyl]-6-[[4-(dimethylamino)-2,6-dimethyl-3-oxidanyl-5-[2,4,6-trimethyl-4,5-bis(oxidanyl)oxan-2-yl]oxy-oxan-2-yl]methoxy]-16-ethyl-9,13-dimethyl-4-oxidanyl-2,10-bis(oxidanylidene)-1-oxacyclohexadeca-11,13-dien-7-yl]ethanal

> <PUBCHEM_IUPAC_TRADITIONAL_NAME>
2-[6-[[5-(4,5-dihydroxy-2,4,6-trimethyl-tetrahydropyran-2-yl)oxy-4-(dimethylamino)-3-hydroxy-2,6-dimethyl-tetrahydropyran-2-yl]methoxy]-16-ethyl-4-hydroxy-15-[(5-hydroxy-3,4-dimethoxy-6-methyl-tetrahydropyran-2-yl)oxymethyl]-2,10-diketo-9,13-dimethyl-1-oxacyclohexadeca-11,13-dien-7-yl]acetaldehyde

> <PUBCHEM_IUPAC_INCHI>
InChI=1S/C48H81NO17/c1-14-35-32(23-60-45-42(59-13)41(58-12)39(54)28(4)62-45)19-26(2)15-16-34(52)27(3)20-31(17-18-50)36(21-33(51)22-37(53)63-35)61-25-47(8)44(56)38(49(10)11)40(29(5)64-47)66-48(9)24-46(7,57)43(55)30(6)65-48/h15-16,18-19,27-33,35-36,38-45,51,54-57H,14,17,20-25H2,1-13H3

> <PUBCHEM_IUPAC_INCHIKEY>
NWRBMCDEEOLHDS-UHFFFAOYSA-N

> <PUBCHEM_XLOGP3_AA>
0.8

> <PUBCHEM_EXACT_MASS>
943.55045

> <PUBCHEM_MOLECULAR_FORMULA>
C48H81NO17

> <PUBCHEM_MOLECULAR_WEIGHT>
944.15324

> <PUBCHEM_OPENEYE_CAN_SMILES>
CCC1C(C=C(C=CC(=O)C(CC(C(CC(CC(=O)O1)O)OCC2(C(C(C(C(O2)C)OC3(CC(C(C(O3)C)O)(C)O)C)N(C)C)O)C)CC=O)C)C)COC4C(C(C(C(O4)C)O)OC)OC

> <PUBCHEM_OPENEYE_ISO_SMILES>
CCC1C(C=C(C=CC(=O)C(CC(C(CC(CC(=O)O1)O)OCC2(C(C(C(C(O2)C)OC3(CC(C(C(O3)C)O)(C)O)C)N(C)C)O)C)CC=O)C)C)COC4C(C(C(C(O4)C)O)OC)OC

> <PUBCHEM_CACTVS_TPSA>
239

> <PUBCHEM_MONOISOTOPIC_WEIGHT>
943.55045

> <PUBCHEM_TOTAL_CHARGE>
0

> <PUBCHEM_HEAVY_ATOM_COUNT>
66

> <PUBCHEM_ATOM_DEF_STEREO_COUNT>
0

> <PUBCHEM_ATOM_UDEF_STEREO_COUNT>
20

> <PUBCHEM_BOND_DEF_STEREO_COUNT>
0

> <PUBCHEM_BOND_UDEF_STEREO_COUNT>
2

> <PUBCHEM_ISOTOPIC_ATOM_COUNT>
0

> <PUBCHEM_COMPONENT_COUNT>
1

> <PUBCHEM_CACTVS_TAUTO_COUNT>
28

> <PUBCHEM_COORDINATE_TYPE>
1
5
255

> <PUBCHEM_BONDANNOTATIONS>
19  67  3
20  68  3
21  27  3
22  69  3
23  70  3
24  32  3
26  34  3
28  75  3
30  79  3
33  87  3
37  97  3
42  109  3
43  110  3
49  118  3
50  119  3
51  60  1
52  120  3
53  121  3
54  124  3
55  123  3
56  125  3
59  61  1

$$$$

