9200
  -OEChem-06261203303D

 34 38  0     0  0  0  0  0  0999 V2000
    0.0000    0.8937   -0.0008 N   0  0  0  0  0  0  0  0  0  0  0  0
    1.1384    0.1183   -0.0006 C   0  0  0  0  0  0  0  0  0  0  0  0
   -1.1384    0.1183   -0.0004 C   0  0  0  0  0  0  0  0  0  0  0  0
    0.7157   -1.2111   -0.0003 C   0  0  0  0  0  0  0  0  0  0  0  0
   -0.7157   -1.2111   -0.0003 C   0  0  0  0  0  0  0  0  0  0  0  0
    2.5101    0.4795   -0.0004 C   0  0  0  0  0  0  0  0  0  0  0  0
   -2.5101    0.4795   -0.0002 C   0  0  0  0  0  0  0  0  0  0  0  0
    3.4684   -0.5628    0.0003 C   0  0  0  0  0  0  0  0  0  0  0  0
   -3.4684   -0.5628    0.0002 C   0  0  0  0  0  0  0  0  0  0  0  0
    1.6880   -2.2320    0.0000 C   0  0  0  0  0  0  0  0  0  0  0  0
   -1.6879   -2.2320   -0.0003 C   0  0  0  0  0  0  0  0  0  0  0  0
    3.0477   -1.8981    0.0004 C   0  0  0  0  0  0  0  0  0  0  0  0
   -3.0477   -1.8982    0.0000 C   0  0  0  0  0  0  0  0  0  0  0  0
    2.9219    1.8271   -0.0005 C   0  0  0  0  0  0  0  0  0  0  0  0
   -2.9219    1.8271   -0.0002 C   0  0  0  0  0  0  0  0  0  0  0  0
    4.8298   -0.2215    0.0009 C   0  0  0  0  0  0  0  0  0  0  0  0
   -4.8297   -0.2215    0.0006 C   0  0  0  0  0  0  0  0  0  0  0  0
    4.2810    2.1368    0.0000 C   0  0  0  0  0  0  0  0  0  0  0  0
   -4.2810    2.1367    0.0003 C   0  0  0  0  0  0  0  0  0  0  0  0
    5.2310    1.1169    0.0007 C   0  0  0  0  0  0  0  0  0  0  0  0
   -5.2310    1.1169    0.0008 C   0  0  0  0  0  0  0  0  0  0  0  0
    0.0001    1.9037   -0.0009 H   0  0  0  0  0  0  0  0  0  0  0  0
    1.3921   -3.2776    0.0002 H   0  0  0  0  0  0  0  0  0  0  0  0
   -1.3920   -3.2777   -0.0004 H   0  0  0  0  0  0  0  0  0  0  0  0
    3.7782   -2.7053    0.0008 H   0  0  0  0  0  0  0  0  0  0  0  0
   -3.7782   -2.7053    0.0002 H   0  0  0  0  0  0  0  0  0  0  0  0
    2.1996    2.6391   -0.0010 H   0  0  0  0  0  0  0  0  0  0  0  0
   -2.1998    2.6390   -0.0005 H   0  0  0  0  0  0  0  0  0  0  0  0
    5.5940   -0.9961    0.0014 H   0  0  0  0  0  0  0  0  0  0  0  0
   -5.5940   -0.9962    0.0009 H   0  0  0  0  0  0  0  0  0  0  0  0
    4.6004    3.1749   -0.0002 H   0  0  0  0  0  0  0  0  0  0  0  0
   -4.6005    3.1749    0.0004 H   0  0  0  0  0  0  0  0  0  0  0  0
    6.2890    1.3634    0.0011 H   0  0  0  0  0  0  0  0  0  0  0  0
   -6.2891    1.3633    0.0012 H   0  0  0  0  0  0  0  0  0  0  0  0
  1  2  1  0  0  0  0
  1  3  1  0  0  0  0
  1 22  1  0  0  0  0
  2  4  2  0  0  0  0
  2  6  1  0  0  0  0
  3  5  2  0  0  0  0
  3  7  1  0  0  0  0
  4  5  1  0  0  0  0
  4 10  1  0  0  0  0
  5 11  1  0  0  0  0
  6  8  1  0  0  0  0
  6 14  2  0  0  0  0
  7  9  1  0  0  0  0
  7 15  2  0  0  0  0
  8 12  1  0  0  0  0
  8 16  2  0  0  0  0
  9 13  1  0  0  0  0
  9 17  2  0  0  0  0
 10 12  2  0  0  0  0
 10 23  1  0  0  0  0
 11 13  2  0  0  0  0
 11 24  1  0  0  0  0
 12 25  1  0  0  0  0
 13 26  1  0  0  0  0
 14 18  1  0  0  0  0
 14 27  1  0  0  0  0
 15 19  1  0  0  0  0
 15 28  1  0  0  0  0
 16 20  1  0  0  0  0
 16 29  1  0  0  0  0
 17 21  1  0  0  0  0
 17 30  1  0  0  0  0
 18 20  2  0  0  0  0
 18 31  1  0  0  0  0
 19 21  2  0  0  0  0
 19 32  1  0  0  0  0
 20 33  1  0  0  0  0
 21 34  1  0  0  0  0
M  END
> <PUBCHEM_COMPOUND_CID>
9200

> <PUBCHEM_CONFORMER_RMSD>
0.6

> <PUBCHEM_CONFORMER_DIVERSEORDER>
1

> <PUBCHEM_MMFF94_PARTIAL_CHARGES>
28
1 0.03
10 -0.15
11 -0.15
12 -0.15
13 -0.15
14 -0.15
15 -0.15
16 -0.15
17 -0.15
18 -0.15
19 -0.15
2 -0.15
20 -0.15
21 -0.15
22 0.27
23 0.15
24 0.15
25 0.15
26 0.15
27 0.15
28 0.15
29 0.15
3 -0.15
30 0.15
31 0.15
32 0.15
33 0.15
34 0.15

> <PUBCHEM_EFFECTIVE_ROTOR_COUNT>
0

> <PUBCHEM_PHARMACOPHORE_FEATURES>
7
1 1 cation
1 1 donor
5 1 2 3 4 5 rings
6 2 4 6 8 10 12 rings
6 3 5 7 9 11 13 rings
6 6 8 14 16 18 20 rings
6 7 9 15 17 19 21 rings

> <PUBCHEM_HEAVY_ATOM_COUNT>
21

> <PUBCHEM_ATOM_DEF_STEREO_COUNT>
0

> <PUBCHEM_ATOM_UDEF_STEREO_COUNT>
0

> <PUBCHEM_BOND_DEF_STEREO_COUNT>
0

> <PUBCHEM_BOND_UDEF_STEREO_COUNT>
0

> <PUBCHEM_ISOTOPIC_ATOM_COUNT>
0

> <PUBCHEM_COMPONENT_COUNT>
1

> <PUBCHEM_CACTVS_TAUTO_COUNT>
1

> <PUBCHEM_CONFORMER_ID>
000023F000000001

> <PUBCHEM_MMFF94_ENERGY>
61.0092

> <PUBCHEM_FEATURE_SELFOVERLAP>
35.741

> <PUBCHEM_SHAPE_FINGERPRINT>
10 15 18272370824349814512
10411042 1 17402048898811603882
10608611 8 18410576188469680486
10616163 171 18337389340203424847
10646746 165 18410572873097799956
10967382 1 18410856598310325990
11595378 159 16916798425626385652
12107183 9 17834678575151065513
12390115 104 18263063505338133513
12788726 201 17386562599930545073
13140716 1 18342459282845271474
133893 2 16300327587770872767
138480 1 17689998259669210531
14341114 176 18411411825902168529
14528608 73 18408324375881941388
14790565 3 18410569587105453220
15196674 1 18410573985151684999
15536298 74 18408321111833552662
1601671 61 18411981360641893356
17492 89 18411418414567519963
1813 80 16773793714376992924
18681886 176 18260554411846500026
200 152 17967254187162310003
20645477 56 18342455954593425677
20645477 70 18187362181500614054
20715895 44 18050574237786578377
21033648 29 17916882303819601965
21065198 57 18411698781494772562
21267235 1 18410565193353831458
21279426 13 18336824303433558902
21304253 335 18343013415151453276
21421861 104 17845102942416382858
21709351 56 18410579461635784676
21859007 373 17271746154029290829
23227448 37 18409167684231391775
23402539 116 18334019380335373677
23402655 69 18333734627950391414
23559900 14 18261674895546796806
245318 6 17056101927987645844
3004659 81 18341327886324307982
335352 9 18410855499611361238
34797466 226 17749381538233307452
34934 24 18410578383198293539
350125 39 18338514136340303273
3545911 37 18410572889945541564
3680242 22 18269839864551773778
4073 2 18059570244662072898
4214541 1 18410856559687483205
4340502 62 17131827694762822467
474 4 17846212224688412292
495365 180 17386299718188504976
5104073 3 18341894108045732107
543358 83 18337669819169391170
633830 44 18411141303651388190
77779 3 18410855460128213766
8272917 22 18335418015008166646
9709674 26 18409161121342580343
9981440 41 18341615862990345258

> <PUBCHEM_SHAPE_MULTIPOLES>
427.19
11.19
2.55
0.61
0
0.17
0
-5.11
0
0
0
0
0
0

> <PUBCHEM_SHAPE_SELFOVERLAP>
997.276

> <PUBCHEM_SHAPE_VOLUME>
217.1

> <PUBCHEM_COORDINATE_TYPE>
2
5
10

$$$$

