13628
  -OEChem-06241222393D

 19 19  0     0  0  0  0  0  0999 V2000
   -0.3193    1.2001   -0.1959 N   0  0  0  0  0  0  0  0  0  0  0  0
   -0.3203   -1.1995   -0.1960 N   0  0  0  0  0  0  0  0  0  0  0  0
    1.7307   -0.0006    0.1414 N   0  0  0  0  0  0  0  0  0  0  0  0
    1.7000    2.3444    0.1382 N   0  0  0  0  0  0  0  0  0  0  0  0
    1.6983   -2.3453    0.1379 N   0  0  0  0  0  0  0  0  0  0  0  0
   -2.3862    0.0009   -0.5340 C   0  0  0  0  0  0  0  0  0  0  0  0
   -0.9148    0.0004   -0.2939 C   0  0  0  0  0  0  0  0  0  0  0  0
   -3.1945    0.0002    0.7593 C   0  0  0  0  0  0  0  0  0  0  0  0
    1.0035    1.1218    0.0216 C   0  0  0  0  0  0  0  0  0  0  0  0
    1.0026   -1.1224    0.0215 C   0  0  0  0  0  0  0  0  0  0  0  0
   -2.6587    0.8798   -1.1304 H   0  0  0  0  0  0  0  0  0  0  0  0
   -2.6590   -0.8771   -1.1316 H   0  0  0  0  0  0  0  0  0  0  0  0
   -2.9704   -0.8856    1.3632 H   0  0  0  0  0  0  0  0  0  0  0  0
   -4.2662    0.0005    0.5371 H   0  0  0  0  0  0  0  0  0  0  0  0
   -2.9701    0.8850    1.3645 H   0  0  0  0  0  0  0  0  0  0  0  0
    2.6970    2.3347    0.3036 H   0  0  0  0  0  0  0  0  0  0  0  0
    1.1932    3.2149    0.0560 H   0  0  0  0  0  0  0  0  0  0  0  0
    1.1910   -3.2155    0.0558 H   0  0  0  0  0  0  0  0  0  0  0  0
    2.6953   -2.3363    0.3031 H   0  0  0  0  0  0  0  0  0  0  0  0
  1  7  2  0  0  0  0
  1  9  1  0  0  0  0
  2  7  1  0  0  0  0
  2 10  2  0  0  0  0
  3  9  2  0  0  0  0
  3 10  1  0  0  0  0
  4  9  1  0  0  0  0
  4 16  1  0  0  0  0
  4 17  1  0  0  0  0
  5 10  1  0  0  0  0
  5 18  1  0  0  0  0
  5 19  1  0  0  0  0
  6  7  1  0  0  0  0
  6  8  1  0  0  0  0
  6 11  1  0  0  0  0
  6 12  1  0  0  0  0
  8 13  1  0  0  0  0
  8 14  1  0  0  0  0
  8 15  1  0  0  0  0
M  END
> <PUBCHEM_COMPOUND_CID>
13628

> <PUBCHEM_CONFORMER_RMSD>
0.4

> <PUBCHEM_CONFORMER_DIVERSEORDER>
1
2

> <PUBCHEM_MMFF94_PARTIAL_CHARGES>
13
1 -0.62
10 0.72
16 0.4
17 0.4
18 0.4
19 0.4
2 -0.62
3 -0.62
4 -0.9
5 -0.9
6 0.14
7 0.48
9 0.72

> <PUBCHEM_EFFECTIVE_ROTOR_COUNT>
1

> <PUBCHEM_PHARMACOPHORE_FEATURES>
6
1 4 donor
1 5 donor
1 8 hydrophobe
4 1 3 4 9 cation
4 2 3 5 10 cation
6 1 2 3 7 9 10 rings

> <PUBCHEM_HEAVY_ATOM_COUNT>
10

> <PUBCHEM_ATOM_DEF_STEREO_COUNT>
0

> <PUBCHEM_ATOM_UDEF_STEREO_COUNT>
0

> <PUBCHEM_BOND_DEF_STEREO_COUNT>
0

> <PUBCHEM_BOND_UDEF_STEREO_COUNT>
0

> <PUBCHEM_ISOTOPIC_ATOM_COUNT>
0

> <PUBCHEM_COMPONENT_COUNT>
1

> <PUBCHEM_CACTVS_TAUTO_COUNT>
10

> <PUBCHEM_CONFORMER_ID>
0000353C00000001

> <PUBCHEM_MMFF94_ENERGY>
23.9986

> <PUBCHEM_FEATURE_SELFOVERLAP>
30.489

> <PUBCHEM_SHAPE_FINGERPRINT>
16945 1 18410863161015073135
20871998 22 18046058534492812582
21040471 1 17978795601626099132
23552423 10 18409453557286242407
241688 4 17905892826664381824
2748010 2 18049174554988206308
29004967 10 18342739658452376195

> <PUBCHEM_SHAPE_MULTIPOLES>
180.89
3.46
2.05
0.69
2.9
0
0.02
0
0.59
-1.96
0.11
0.31
0
0

> <PUBCHEM_SHAPE_SELFOVERLAP>
366.705

> <PUBCHEM_SHAPE_VOLUME>
97.8

> <PUBCHEM_COORDINATE_TYPE>
2
5
10

$$$$

