11037
  -OEChem-06261205152D

 36 37  0     0  0  0  0  0  0999 V2000
    3.7320    3.8450    0.0000 S   0  0  0  0  0  0  0  0  0  0  0  0
    3.7320    4.8450    0.0000 O   0  0  0  0  0  0  0  0  0  0  0  0
    4.7320    3.8450    0.0000 O   0  0  0  0  0  0  0  0  0  0  0  0
    2.7320    3.8450    0.0000 O   0  0  0  0  0  0  0  0  0  0  0  0
    2.8660   -4.6550    0.0000 N   0  0  0  0  0  0  0  0  0  0  0  0
    2.8660   -0.6550    0.0000 N   0  0  0  0  0  0  0  0  0  0  0  0
    3.7320   -0.1550    0.0000 N   0  0  0  0  0  0  0  0  0  0  0  0
    2.8660   -3.6550    0.0000 C   0  0  0  0  0  0  0  0  0  0  0  0
    2.0000   -3.1550    0.0000 C   0  0  0  0  0  0  0  0  0  0  0  0
    3.7320   -3.1550    0.0000 C   0  0  0  0  0  0  0  0  0  0  0  0
    3.7320    2.8450    0.0000 C   0  0  0  0  0  0  0  0  0  0  0  0
    2.8660   -1.6550    0.0000 C   0  0  0  0  0  0  0  0  0  0  0  0
    2.0000   -2.1550    0.0000 C   0  0  0  0  0  0  0  0  0  0  0  0
    3.7320   -2.1550    0.0000 C   0  0  0  0  0  0  0  0  0  0  0  0
    3.7320    0.8450    0.0000 C   0  0  0  0  0  0  0  0  0  0  0  0
    2.0000   -5.1550    0.0000 C   0  0  0  0  0  0  0  0  0  0  0  0
    3.7320   -5.1550    0.0000 C   0  0  0  0  0  0  0  0  0  0  0  0
    2.8660    2.3450    0.0000 C   0  0  0  0  0  0  0  0  0  0  0  0
    4.5981    2.3450    0.0000 C   0  0  0  0  0  0  0  0  0  0  0  0
    2.8660    1.3450    0.0000 C   0  0  0  0  0  0  0  0  0  0  0  0
    4.5981    1.3450    0.0000 C   0  0  0  0  0  0  0  0  0  0  0  0
    1.4631   -3.4650    0.0000 H   0  0  0  0  0  0  0  0  0  0  0  0
    4.2690   -3.4650    0.0000 H   0  0  0  0  0  0  0  0  0  0  0  0
    1.4631   -1.8450    0.0000 H   0  0  0  0  0  0  0  0  0  0  0  0
    4.2690   -1.8450    0.0000 H   0  0  0  0  0  0  0  0  0  0  0  0
    1.6900   -4.6181    0.0000 H   0  0  0  0  0  0  0  0  0  0  0  0
    1.4631   -5.4650    0.0000 H   0  0  0  0  0  0  0  0  0  0  0  0
    2.3100   -5.6919    0.0000 H   0  0  0  0  0  0  0  0  0  0  0  0
    3.4220   -5.6919    0.0000 H   0  0  0  0  0  0  0  0  0  0  0  0
    4.2690   -5.4650    0.0000 H   0  0  0  0  0  0  0  0  0  0  0  0
    4.0420   -4.6181    0.0000 H   0  0  0  0  0  0  0  0  0  0  0  0
    2.3291    2.6550    0.0000 H   0  0  0  0  0  0  0  0  0  0  0  0
    5.1350    2.6550    0.0000 H   0  0  0  0  0  0  0  0  0  0  0  0
    2.3291    1.0350    0.0000 H   0  0  0  0  0  0  0  0  0  0  0  0
    5.1350    1.0350    0.0000 H   0  0  0  0  0  0  0  0  0  0  0  0
    4.2690    5.1550    0.0000 H   0  0  0  0  0  0  0  0  0  0  0  0
  1  2  1  0  0  0  0
  1  3  2  0  0  0  0
  1  4  2  0  0  0  0
  1 11  1  0  0  0  0
  2 36  1  0  0  0  0
  5  8  1  0  0  0  0
  5 16  1  0  0  0  0
  5 17  1  0  0  0  0
  6  7  2  0  0  0  0
  6 12  1  0  0  0  0
  7 15  1  0  0  0  0
  8  9  2  0  0  0  0
  8 10  1  0  0  0  0
  9 13  1  0  0  0  0
  9 22  1  0  0  0  0
 10 14  2  0  0  0  0
 10 23  1  0  0  0  0
 11 18  2  0  0  0  0
 11 19  1  0  0  0  0
 12 13  2  0  0  0  0
 12 14  1  0  0  0  0
 13 24  1  0  0  0  0
 14 25  1  0  0  0  0
 15 20  2  0  0  0  0
 15 21  1  0  0  0  0
 16 26  1  0  0  0  0
 16 27  1  0  0  0  0
 16 28  1  0  0  0  0
 17 29  1  0  0  0  0
 17 30  1  0  0  0  0
 17 31  1  0  0  0  0
 18 20  1  0  0  0  0
 18 32  1  0  0  0  0
 19 21  2  0  0  0  0
 19 33  1  0  0  0  0
 20 34  1  0  0  0  0
 21 35  1  0  0  0  0
M  END
> <PUBCHEM_COMPOUND_CID>
11037

> <PUBCHEM_COMPOUND_CANONICALIZED>
1

> <PUBCHEM_CACTVS_COMPLEXITY>
443

> <PUBCHEM_CACTVS_HBOND_ACCEPTOR>
6

> <PUBCHEM_CACTVS_HBOND_DONOR>
1

> <PUBCHEM_CACTVS_ROTATABLE_BOND>
4

> <PUBCHEM_CACTVS_SUBSKEYS>
AAADccBzMABAAAAAAAAAAAAAAAAAAAAAAAAwYAAAAAAAAAABQAAAHAQICAAACAiBUAQywYMAAIKCACRCQHDCAEAhAgAIiBgIZIgIICLAkZGEIAhggABIyAcQAAAAAASAAAAAAAAACQAAAAAAAAAAAAAAAA==

> <PUBCHEM_IUPAC_OPENEYE_NAME>
4-[4-(dimethylamino)phenyl]azobenzenesulfonic acid

> <PUBCHEM_IUPAC_CAS_NAME>
4-[4-(dimethylamino)phenyl]azobenzenesulfonic acid

> <PUBCHEM_IUPAC_NAME>
4-[[4-(dimethylamino)phenyl]diazenyl]benzenesulfonic acid

> <PUBCHEM_IUPAC_SYSTEMATIC_NAME>
4-[[4-(dimethylamino)phenyl]diazenyl]benzenesulfonic acid

> <PUBCHEM_IUPAC_TRADITIONAL_NAME>
4-[4-(dimethylamino)phenyl]azobesylic acid

> <PUBCHEM_IUPAC_INCHI>
InChI=1S/C14H15N3O3S/c1-17(2)13-7-3-11(4-8-13)15-16-12-5-9-14(10-6-12)21(18,19)20/h3-10H,1-2H3,(H,18,19,20)

> <PUBCHEM_IUPAC_INCHIKEY>
IETWCRRCPURZOC-UHFFFAOYSA-N

> <PUBCHEM_XLOGP3>
3.3

> <PUBCHEM_EXACT_MASS>
305.083412

> <PUBCHEM_MOLECULAR_FORMULA>
C14H15N3O3S

> <PUBCHEM_MOLECULAR_WEIGHT>
305.3522

> <PUBCHEM_OPENEYE_CAN_SMILES>
CN(C)C1=CC=C(C=C1)N=NC2=CC=C(C=C2)S(=O)(=O)O

> <PUBCHEM_OPENEYE_ISO_SMILES>
CN(C)C1=CC=C(C=C1)N=NC2=CC=C(C=C2)S(=O)(=O)O

> <PUBCHEM_CACTVS_TPSA>
90.7

> <PUBCHEM_MONOISOTOPIC_WEIGHT>
305.083412

> <PUBCHEM_TOTAL_CHARGE>
0

> <PUBCHEM_HEAVY_ATOM_COUNT>
21

> <PUBCHEM_ATOM_DEF_STEREO_COUNT>
0

> <PUBCHEM_ATOM_UDEF_STEREO_COUNT>
0

> <PUBCHEM_BOND_DEF_STEREO_COUNT>
0

> <PUBCHEM_BOND_UDEF_STEREO_COUNT>
0

> <PUBCHEM_ISOTOPIC_ATOM_COUNT>
0

> <PUBCHEM_COMPONENT_COUNT>
1

> <PUBCHEM_CACTVS_TAUTO_COUNT>
1

> <PUBCHEM_COORDINATE_TYPE>
1
5
255

> <PUBCHEM_BONDANNOTATIONS>
10  14  8
11  18  8
11  19  8
12  13  8
12  14  8
15  20  8
15  21  8
18  20  8
19  21  8
8  10  8
8  9  8
9  13  8

$$$$

