11751
  -OEChem-06261206043D

 11 10  0     0  0  0  0  0  0999 V2000
   -0.0551   -1.8700    0.8391 Cl  0  0  0  0  0  0  0  0  0  0  0  0
    2.2984   -0.3380   -0.7795 O   0  0  0  0  0  0  0  0  0  0  0  0
   -2.3889   -0.4327   -0.3889 O   0  0  0  0  0  0  0  0  0  0  0  0
    1.4398    1.1628    0.6958 O   0  0  0  0  0  0  0  0  0  0  0  0
   -1.3067    1.4842    0.1487 O   0  0  0  0  0  0  0  0  0  0  0  0
   -0.0063   -0.5173   -0.3137 C   0  0  0  0  0  0  0  0  0  0  0  0
    1.2864    0.2153   -0.0611 C   0  0  0  0  0  0  0  0  0  0  0  0
   -1.2676    0.2957   -0.1403 C   0  0  0  0  0  0  0  0  0  0  0  0
   -0.0024   -0.9089   -1.3372 H   0  0  0  0  0  0  0  0  0  0  0  0
    3.1519    0.1184   -0.6199 H   0  0  0  0  0  0  0  0  0  0  0  0
   -3.2029    0.1066   -0.2945 H   0  0  0  0  0  0  0  0  0  0  0  0
  1  6  1  0  0  0  0
  2  7  1  0  0  0  0
  2 10  1  0  0  0  0
  3  8  1  0  0  0  0
  3 11  1  0  0  0  0
  4  7  2  0  0  0  0
  5  8  2  0  0  0  0
  6  7  1  0  0  0  0
  6  8  1  0  0  0  0
  6  9  1  0  0  0  0
M  END
> <PUBCHEM_COMPOUND_CID>
11751

> <PUBCHEM_CONFORMER_RMSD>
0.4

> <PUBCHEM_CONFORMER_DIVERSEORDER>
1
7
4
2
3
8
9
5
6

> <PUBCHEM_MMFF94_PARTIAL_CHARGES>
10
1 -0.29
10 0.5
11 0.5
2 -0.65
3 -0.65
4 -0.57
5 -0.57
6 0.41
7 0.66
8 0.66

> <PUBCHEM_EFFECTIVE_ROTOR_COUNT>
2

> <PUBCHEM_PHARMACOPHORE_FEATURES>
7
1 2 acceptor
1 3 acceptor
1 4 acceptor
1 5 acceptor
1 6 anion
3 2 4 7 anion
3 3 5 8 anion

> <PUBCHEM_HEAVY_ATOM_COUNT>
8

> <PUBCHEM_ATOM_DEF_STEREO_COUNT>
0

> <PUBCHEM_ATOM_UDEF_STEREO_COUNT>
0

> <PUBCHEM_BOND_DEF_STEREO_COUNT>
0

> <PUBCHEM_BOND_UDEF_STEREO_COUNT>
0

> <PUBCHEM_ISOTOPIC_ATOM_COUNT>
0

> <PUBCHEM_COMPONENT_COUNT>
1

> <PUBCHEM_CACTVS_TAUTO_COUNT>
1

> <PUBCHEM_CONFORMER_ID>
00002DE700000001

> <PUBCHEM_MMFF94_ENERGY>
10.1615

> <PUBCHEM_FEATURE_SELFOVERLAP>
36.162

> <PUBCHEM_SHAPE_FINGERPRINT>
137420 1 12449601480809830178
18185500 45 17763470916544507467
20096714 4 18335422429865099669
21040471 1 18272937102475303466
23552423 10 18127405880862046574
24536 1 18198062478221937564
29004967 10 16732699484579535766
5084963 1 18412543223377634748

> <PUBCHEM_SHAPE_MULTIPOLES>
143.03
2.56
1.57
0.82
0.05
0.53
0.04
-0.41
-0.52
0.18
0.51
-0.19
0.09
0.09

> <PUBCHEM_SHAPE_SELFOVERLAP>
266.853

> <PUBCHEM_SHAPE_VOLUME>
89.4

> <PUBCHEM_COORDINATE_TYPE>
2
5
10

$$$$

