47205166
  -OEChem-06241222582D

 44 45  0     1  0  0  0  0  0999 V2000
    4.3763    4.1739    0.0000 Cl  0  0  0  0  0  0  0  0  0  0  0  0
    6.3301    0.3261    0.0000 O   0  0  0  0  0  0  0  0  0  0  0  0
    2.8660   -0.6739    0.0000 N   0  0  0  0  0  0  0  0  0  0  0  0
    4.5981    0.3261    0.0000 N   0  0  0  0  0  0  0  0  0  0  0  0
    6.2731    2.4139    0.0000 N   0  0  0  0  0  0  0  0  0  0  0  0
    3.7320   -2.1739    0.0000 C   0  0  0  0  0  0  0  0  0  0  0  0
    3.7320   -1.1739    0.0000 C   0  0  3  0  0  0  0  0  0  0  0  0
    2.8660   -2.6739    0.0000 C   0  0  0  0  0  0  0  0  0  0  0  0
    4.5981   -2.6739    0.0000 C   0  0  0  0  0  0  0  0  0  0  0  0
    4.5981   -3.6739    0.0000 C   0  0  0  0  0  0  0  0  0  0  0  0
    2.8660   -3.6739    0.0000 C   0  0  0  0  0  0  0  0  0  0  0  0
    3.7320   -4.1739    0.0000 C   0  0  0  0  0  0  0  0  0  0  0  0
    4.5981   -0.6739    0.0000 C   0  0  0  0  0  0  0  0  0  0  0  0
    2.8660    0.3261    0.0000 C   0  0  0  0  0  0  0  0  0  0  0  0
    2.0000   -1.1739    0.0000 C   0  0  0  0  0  0  0  0  0  0  0  0
    5.4641    0.8261    0.0000 C   0  0  0  0  0  0  0  0  0  0  0  0
    5.4641    1.8261    0.0000 C   0  0  0  0  0  0  0  0  0  0  0  0
    4.6551    2.4139    0.0000 C   0  0  0  0  0  0  0  0  0  0  0  0
    5.9641    3.3649    0.0000 C   0  0  0  0  0  0  0  0  0  0  0  0
    4.9641    3.3649    0.0000 C   0  0  0  0  0  0  0  0  0  0  0  0
    4.2690   -1.8639    0.0000 H   0  0  0  0  0  0  0  0  0  0  0  0
    3.7320   -0.5539    0.0000 H   0  0  0  0  0  0  0  0  0  0  0  0
    5.2087   -2.7816    0.0000 H   0  0  0  0  0  0  0  0  0  0  0  0
    4.8101   -2.0913    0.0000 H   0  0  0  0  0  0  0  0  0  0  0  0
    2.6540   -2.0913    0.0000 H   0  0  0  0  0  0  0  0  0  0  0  0
    2.2554   -2.7816    0.0000 H   0  0  0  0  0  0  0  0  0  0  0  0
    4.8101   -4.2565    0.0000 H   0  0  0  0  0  0  0  0  0  0  0  0
    5.2087   -3.5663    0.0000 H   0  0  0  0  0  0  0  0  0  0  0  0
    2.2554   -3.5663    0.0000 H   0  0  0  0  0  0  0  0  0  0  0  0
    2.6540   -4.2565    0.0000 H   0  0  0  0  0  0  0  0  0  0  0  0
    3.3335   -4.6489    0.0000 H   0  0  0  0  0  0  0  0  0  0  0  0
    4.1306   -4.6489    0.0000 H   0  0  0  0  0  0  0  0  0  0  0  0
    4.8101   -1.2565    0.0000 H   0  0  0  0  0  0  0  0  0  0  0  0
    5.2087   -0.5663    0.0000 H   0  0  0  0  0  0  0  0  0  0  0  0
    1.6900   -0.6370    0.0000 H   0  0  0  0  0  0  0  0  0  0  0  0
    1.4631   -1.4839    0.0000 H   0  0  0  0  0  0  0  0  0  0  0  0
    2.3100   -1.7109    0.0000 H   0  0  0  0  0  0  0  0  0  0  0  0
    3.4860    0.3261    0.0000 H   0  0  0  0  0  0  0  0  0  0  0  0
    2.8660    0.9461    0.0000 H   0  0  0  0  0  0  0  0  0  0  0  0
    2.2460    0.3261    0.0000 H   0  0  0  0  0  0  0  0  0  0  0  0
    4.0611    0.6361    0.0000 H   0  0  0  0  0  0  0  0  0  0  0  0
    6.8628    2.2223    0.0000 H   0  0  0  0  0  0  0  0  0  0  0  0
    4.0654    2.2223    0.0000 H   0  0  0  0  0  0  0  0  0  0  0  0
    6.3285    3.8665    0.0000 H   0  0  0  0  0  0  0  0  0  0  0  0
  1 20  1  0  0  0  0
  2 16  2  0  0  0  0
  3  7  1  0  0  0  0
  3 14  1  0  0  0  0
  3 15  1  0  0  0  0
  4 13  1  0  0  0  0
  4 16  1  0  0  0  0
  4 41  1  0  0  0  0
  5 17  1  0  0  0  0
  5 19  1  0  0  0  0
  5 42  1  0  0  0  0
  6  7  1  0  0  0  0
  6  8  1  0  0  0  0
  6  9  1  0  0  0  0
  6 21  1  0  0  0  0
  7 13  1  0  0  0  0
  7 22  1  0  0  0  0
  8 11  1  0  0  0  0
  8 25  1  0  0  0  0
  8 26  1  0  0  0  0
  9 10  1  0  0  0  0
  9 23  1  0  0  0  0
  9 24  1  0  0  0  0
 10 12  1  0  0  0  0
 10 27  1  0  0  0  0
 10 28  1  0  0  0  0
 11 12  1  0  0  0  0
 11 29  1  0  0  0  0
 11 30  1  0  0  0  0
 12 31  1  0  0  0  0
 12 32  1  0  0  0  0
 13 33  1  0  0  0  0
 13 34  1  0  0  0  0
 14 38  1  0  0  0  0
 14 39  1  0  0  0  0
 14 40  1  0  0  0  0
 15 35  1  0  0  0  0
 15 36  1  0  0  0  0
 15 37  1  0  0  0  0
 16 17  1  0  0  0  0
 17 18  2  0  0  0  0
 18 20  1  0  0  0  0
 18 43  1  0  0  0  0
 19 20  2  0  0  0  0
 19 44  1  0  0  0  0
M  END
> <PUBCHEM_COMPOUND_CID>
47205166

> <PUBCHEM_COMPOUND_CANONICALIZED>
1

> <PUBCHEM_CACTVS_COMPLEXITY>
318

> <PUBCHEM_CACTVS_HBOND_ACCEPTOR>
2

> <PUBCHEM_CACTVS_HBOND_DONOR>
2

> <PUBCHEM_CACTVS_ROTATABLE_BOND>
5

> <PUBCHEM_CACTVS_SUBSKEYS>
AAADceBzIAAEAAAAAAAAAAAAAAAAAWAAAAAwAAAAAAAAAAABgAAAHgIQAAAADSrBliQ+gJPJkACoATV3VACCgCA3ByAA2aG4ZtgIYPLBl7HUAQhglgDIyYcYgYAOAAAAAAAAAAAAAAAAAAAAAAAAAAAAAA==

> <PUBCHEM_IUPAC_OPENEYE_NAME>
4-chloro-N-[2-cyclohexyl-2-(dimethylamino)ethyl]-1H-pyrrole-2-carboxamide

> <PUBCHEM_IUPAC_CAS_NAME>
4-chloro-N-[2-cyclohexyl-2-(dimethylamino)ethyl]-1H-pyrrole-2-carboxamide

> <PUBCHEM_IUPAC_NAME>
4-chloro-N-[2-cyclohexyl-2-(dimethylamino)ethyl]-1H-pyrrole-2-carboxamide

> <PUBCHEM_IUPAC_SYSTEMATIC_NAME>
4-chloranyl-N-[2-cyclohexyl-2-(dimethylamino)ethyl]-1H-pyrrole-2-carboxamide

> <PUBCHEM_IUPAC_TRADITIONAL_NAME>
4-chloro-N-[2-cyclohexyl-2-(dimethylamino)ethyl]-1H-pyrrole-2-carboxamide

> <PUBCHEM_IUPAC_INCHI>
InChI=1S/C15H24ClN3O/c1-19(2)14(11-6-4-3-5-7-11)10-18-15(20)13-8-12(16)9-17-13/h8-9,11,14,17H,3-7,10H2,1-2H3,(H,18,20)

> <PUBCHEM_IUPAC_INCHIKEY>
SEWUYDIHHPAVQB-UHFFFAOYSA-N

> <PUBCHEM_XLOGP3_AA>
3.4

> <PUBCHEM_EXACT_MASS>
297.16079

> <PUBCHEM_MOLECULAR_FORMULA>
C15H24ClN3O

> <PUBCHEM_MOLECULAR_WEIGHT>
297.82356

> <PUBCHEM_OPENEYE_CAN_SMILES>
CN(C)C(CNC(=O)C1=CC(=CN1)Cl)C2CCCCC2

> <PUBCHEM_OPENEYE_ISO_SMILES>
CN(C)C(CNC(=O)C1=CC(=CN1)Cl)C2CCCCC2

> <PUBCHEM_CACTVS_TPSA>
48.1

> <PUBCHEM_MONOISOTOPIC_WEIGHT>
297.16079

> <PUBCHEM_TOTAL_CHARGE>
0

> <PUBCHEM_HEAVY_ATOM_COUNT>
20

> <PUBCHEM_ATOM_DEF_STEREO_COUNT>
0

> <PUBCHEM_ATOM_UDEF_STEREO_COUNT>
1

> <PUBCHEM_BOND_DEF_STEREO_COUNT>
0

> <PUBCHEM_BOND_UDEF_STEREO_COUNT>
0

> <PUBCHEM_ISOTOPIC_ATOM_COUNT>
0

> <PUBCHEM_COMPONENT_COUNT>
1

> <PUBCHEM_CACTVS_TAUTO_COUNT>
7

> <PUBCHEM_COORDINATE_TYPE>
1
5
255

> <PUBCHEM_BONDANNOTATIONS>
17  18  8
18  20  8
19  20  8
5  17  8
5  19  8
7  13  3

$$$$

