586277
  -OEChem-06241222463D

 29 30  0     0  0  0  0  0  0999 V2000
   -0.6873    1.1951   -1.1206 O   0  0  0  0  0  0  0  0  0  0  0  0
    3.1734   -0.0675    0.1484 O   0  0  0  0  0  0  0  0  0  0  0  0
   -0.5238    0.1146   -0.1808 C   0  0  0  0  0  0  0  0  0  0  0  0
   -1.3122   -1.0777   -0.7715 C   0  0  0  0  0  0  0  0  0  0  0  0
   -1.1714    0.5779    1.1472 C   0  0  0  0  0  0  0  0  0  0  0  0
   -2.8102   -0.7899   -0.8997 C   0  0  0  0  0  0  0  0  0  0  0  0
   -2.6684    0.8620    1.0030 C   0  0  0  0  0  0  0  0  0  0  0  0
   -3.4127   -0.3374    0.4260 C   0  0  0  0  0  0  0  0  0  0  0  0
    0.9505   -0.2463    0.0013 C   0  0  0  0  0  0  0  0  0  0  0  0
    2.0149    0.6100   -0.0635 C   0  0  0  0  0  0  0  0  0  0  0  0
    1.4686   -1.5275    0.2677 C   0  0  0  0  0  0  0  0  0  0  0  0
    2.8322   -1.3676    0.3493 C   0  0  0  0  0  0  0  0  0  0  0  0
    2.1463    2.0542   -0.3068 C   0  0  0  0  0  0  0  0  0  0  0  0
   -1.2012   -1.9669   -0.1390 H   0  0  0  0  0  0  0  0  0  0  0  0
   -0.9245   -1.3377   -1.7651 H   0  0  0  0  0  0  0  0  0  0  0  0
   -0.6816    1.4934    1.5026 H   0  0  0  0  0  0  0  0  0  0  0  0
   -1.0214   -0.1855    1.9217 H   0  0  0  0  0  0  0  0  0  0  0  0
   -3.3265   -1.6921   -1.2476 H   0  0  0  0  0  0  0  0  0  0  0  0
   -2.9773   -0.0187   -1.6614 H   0  0  0  0  0  0  0  0  0  0  0  0
   -2.8222    1.7358    0.3585 H   0  0  0  0  0  0  0  0  0  0  0  0
   -3.0871    1.1160    1.9835 H   0  0  0  0  0  0  0  0  0  0  0  0
   -4.4686   -0.0816    0.2826 H   0  0  0  0  0  0  0  0  0  0  0  0
   -3.3799   -1.1666    1.1435 H   0  0  0  0  0  0  0  0  0  0  0  0
   -0.3149    0.9089   -1.9724 H   0  0  0  0  0  0  0  0  0  0  0  0
    0.9425   -2.4621    0.3957 H   0  0  0  0  0  0  0  0  0  0  0  0
    3.6544   -2.0430    0.5357 H   0  0  0  0  0  0  0  0  0  0  0  0
    1.4036    2.6169    0.2671 H   0  0  0  0  0  0  0  0  0  0  0  0
    3.1362    2.4188   -0.0144 H   0  0  0  0  0  0  0  0  0  0  0  0
    2.0047    2.2780   -1.3685 H   0  0  0  0  0  0  0  0  0  0  0  0
  1  3  1  0  0  0  0
  1 24  1  0  0  0  0
  2 10  1  0  0  0  0
  2 12  1  0  0  0  0
  3  4  1  0  0  0  0
  3  5  1  0  0  0  0
  3  9  1  0  0  0  0
  4  6  1  0  0  0  0
  4 14  1  0  0  0  0
  4 15  1  0  0  0  0
  5  7  1  0  0  0  0
  5 16  1  0  0  0  0
  5 17  1  0  0  0  0
  6  8  1  0  0  0  0
  6 18  1  0  0  0  0
  6 19  1  0  0  0  0
  7  8  1  0  0  0  0
  7 20  1  0  0  0  0
  7 21  1  0  0  0  0
  8 22  1  0  0  0  0
  8 23  1  0  0  0  0
  9 10  2  0  0  0  0
  9 11  1  0  0  0  0
 10 13  1  0  0  0  0
 11 12  2  0  0  0  0
 11 25  1  0  0  0  0
 12 26  1  0  0  0  0
 13 27  1  0  0  0  0
 13 28  1  0  0  0  0
 13 29  1  0  0  0  0
M  END
> <PUBCHEM_COMPOUND_CID>
586277

> <PUBCHEM_CONFORMER_RMSD>
0.6

> <PUBCHEM_CONFORMER_DIVERSEORDER>
2
1
7
6
5
4
8
3

> <PUBCHEM_MMFF94_PARTIAL_CHARGES>
11
1 -0.68
10 -0.04
11 -0.15
12 -0.01
13 0.18
2 -0.28
24 0.4
25 0.15
26 0.15
3 0.46
9 -0.18

> <PUBCHEM_EFFECTIVE_ROTOR_COUNT>
2.2

> <PUBCHEM_PHARMACOPHORE_FEATURES>
5
1 1 acceptor
1 1 donor
1 2 acceptor
5 2 9 10 11 12 rings
6 3 4 5 6 7 8 rings

> <PUBCHEM_HEAVY_ATOM_COUNT>
13

> <PUBCHEM_ATOM_DEF_STEREO_COUNT>
0

> <PUBCHEM_ATOM_UDEF_STEREO_COUNT>
0

> <PUBCHEM_BOND_DEF_STEREO_COUNT>
0

> <PUBCHEM_BOND_UDEF_STEREO_COUNT>
0

> <PUBCHEM_ISOTOPIC_ATOM_COUNT>
0

> <PUBCHEM_COMPONENT_COUNT>
1

> <PUBCHEM_CACTVS_TAUTO_COUNT>
1

> <PUBCHEM_CONFORMER_ID>
0008F22500000002

> <PUBCHEM_MMFF94_ENERGY>
13.5287

> <PUBCHEM_FEATURE_SELFOVERLAP>
25.371

> <PUBCHEM_SHAPE_FINGERPRINT>
12251169 10 18335416898084333595
12696612 119 18410006671785609252
12932764 1 18413386557386034509
13296908 3 17346597465410715283
13538477 17 17967254174103250383
13581323 91 17240205451568088751
14144814 61 18334858341697878746
15501101 241 18130783456081147068
15669948 3 17531249400913729703
15775835 57 18334568010646472120
16945 1 18341898497565611278
17844478 74 17846775238955521277
19422 9 18260828172492364591
200 152 18261970603823093343
20201158 50 17561363993311048571
20279233 1 16917071048796415819
20559304 39 18186516605323742888
20645477 70 18342185470454291679
22445834 79 18336545005551820283
23463225 33 18261391182438080503
23552423 10 18408608036949649631
2748010 2 17979367670021852446
3248919 1 17748828531271412671
369184 2 18272089413633686235
5084963 1 18336557070214954018
7364860 26 18114179714290098276
77492 1 18259702281085473895

> <PUBCHEM_SHAPE_MULTIPOLES>
255.8
5.21
1.64
1.01
0.7
0.26
0
-0.45
-0.53
-0.93
0.12
0.54
0.11
-0.76

> <PUBCHEM_SHAPE_SELFOVERLAP>
534.626

> <PUBCHEM_SHAPE_VOLUME>
145.7

> <PUBCHEM_COORDINATE_TYPE>
2
5
10

$$$$

