11912
  -OEChem-06261206162D

 45 47  0     0  0  0  0  0  0999 V2000
    8.9942   -0.7742    0.0000 O   0  0  0  0  0  0  0  0  0  0  0  0
    5.4641   -0.7500    0.0000 O   0  0  0  0  0  0  0  0  0  0  0  0
    5.4641    2.2500    0.0000 O   0  0  0  0  0  0  0  0  0  0  0  0
   12.4583   -0.7875    0.0000 N   0  0  0  0  0  0  0  0  0  0  0  0
   10.7263   -0.7808    0.0000 C   0  0  0  0  0  0  0  0  0  0  0  0
   11.5942   -0.2842    0.0000 C   0  0  0  0  0  0  0  0  0  0  0  0
    9.8622   -0.2775    0.0000 C   0  0  0  0  0  0  0  0  0  0  0  0
    6.3301    0.7500    0.0000 C   0  0  0  0  0  0  0  0  0  0  0  0
    6.3301   -0.2500    0.0000 C   0  0  0  0  0  0  0  0  0  0  0  0
    8.1301   -0.2708    0.0000 C   0  0  0  0  0  0  0  0  0  0  0  0
    7.2241   -0.7847    0.0000 C   0  0  0  0  0  0  0  0  0  0  0  0
    7.2241    1.2847    0.0000 C   0  0  0  0  0  0  0  0  0  0  0  0
    4.5981   -0.2500    0.0000 C   0  0  0  0  0  0  0  0  0  0  0  0
    8.1301    0.7708    0.0000 C   0  0  0  0  0  0  0  0  0  0  0  0
   13.3263   -0.2908    0.0000 C   0  0  0  0  0  0  0  0  0  0  0  0
   12.4544   -1.7875    0.0000 C   0  0  0  0  0  0  0  0  0  0  0  0
    5.4641    1.2500    0.0000 C   0  0  0  0  0  0  0  0  0  0  0  0
    4.5981    0.7500    0.0000 C   0  0  0  0  0  0  0  0  0  0  0  0
    3.7320   -0.7500    0.0000 C   0  0  0  0  0  0  0  0  0  0  0  0
    2.8660   -0.2500    0.0000 C   0  0  0  0  0  0  0  0  0  0  0  0
    3.7320   -1.7500    0.0000 C   0  0  0  0  0  0  0  0  0  0  0  0
    2.0000   -0.7500    0.0000 C   0  0  0  0  0  0  0  0  0  0  0  0
    2.8660   -2.2500    0.0000 C   0  0  0  0  0  0  0  0  0  0  0  0
    2.0000   -1.7500    0.0000 C   0  0  0  0  0  0  0  0  0  0  0  0
   10.3259   -1.2542    0.0000 H   0  0  0  0  0  0  0  0  0  0  0  0
   11.1230   -1.2573    0.0000 H   0  0  0  0  0  0  0  0  0  0  0  0
   11.9946    0.1892    0.0000 H   0  0  0  0  0  0  0  0  0  0  0  0
   11.1975    0.1923    0.0000 H   0  0  0  0  0  0  0  0  0  0  0  0
   10.2625    0.1959    0.0000 H   0  0  0  0  0  0  0  0  0  0  0  0
    9.4655    0.1990    0.0000 H   0  0  0  0  0  0  0  0  0  0  0  0
    7.2169   -1.4046    0.0000 H   0  0  0  0  0  0  0  0  0  0  0  0
    7.2169    1.9046    0.0000 H   0  0  0  0  0  0  0  0  0  0  0  0
    8.6659    1.0829    0.0000 H   0  0  0  0  0  0  0  0  0  0  0  0
   11.8345   -1.7851    0.0000 H   0  0  0  0  0  0  0  0  0  0  0  0
   12.4521   -2.4075    0.0000 H   0  0  0  0  0  0  0  0  0  0  0  0
   13.0744   -1.7899    0.0000 H   0  0  0  0  0  0  0  0  0  0  0  0
   13.6342   -0.8290    0.0000 H   0  0  0  0  0  0  0  0  0  0  0  0
   13.8644    0.0171    0.0000 H   0  0  0  0  0  0  0  0  0  0  0  0
   13.0183    0.2473    0.0000 H   0  0  0  0  0  0  0  0  0  0  0  0
    4.0611    1.0600    0.0000 H   0  0  0  0  0  0  0  0  0  0  0  0
    2.8660    0.3700    0.0000 H   0  0  0  0  0  0  0  0  0  0  0  0
    4.2690   -2.0600    0.0000 H   0  0  0  0  0  0  0  0  0  0  0  0
    1.4631   -0.4400    0.0000 H   0  0  0  0  0  0  0  0  0  0  0  0
    2.8660   -2.8700    0.0000 H   0  0  0  0  0  0  0  0  0  0  0  0
    1.4631   -2.0600    0.0000 H   0  0  0  0  0  0  0  0  0  0  0  0
  1  7  1  0  0  0  0
  1 10  1  0  0  0  0
  2  9  1  0  0  0  0
  2 13  1  0  0  0  0
  3 17  2  0  0  0  0
  4  6  1  0  0  0  0
  4 15  1  0  0  0  0
  4 16  1  0  0  0  0
  5  6  1  0  0  0  0
  5  7  1  0  0  0  0
  5 25  1  0  0  0  0
  5 26  1  0  0  0  0
  6 27  1  0  0  0  0
  6 28  1  0  0  0  0
  7 29  1  0  0  0  0
  7 30  1  0  0  0  0
  8  9  2  0  0  0  0
  8 12  1  0  0  0  0
  8 17  1  0  0  0  0
  9 11  1  0  0  0  0
 10 11  2  0  0  0  0
 10 14  1  0  0  0  0
 11 31  1  0  0  0  0
 12 14  2  0  0  0  0
 12 32  1  0  0  0  0
 13 18  2  0  0  0  0
 13 19  1  0  0  0  0
 14 33  1  0  0  0  0
 15 37  1  0  0  0  0
 15 38  1  0  0  0  0
 15 39  1  0  0  0  0
 16 34  1  0  0  0  0
 16 35  1  0  0  0  0
 16 36  1  0  0  0  0
 17 18  1  0  0  0  0
 18 40  1  0  0  0  0
 19 20  2  0  0  0  0
 19 21  1  0  0  0  0
 20 22  1  0  0  0  0
 20 41  1  0  0  0  0
 21 23  2  0  0  0  0
 21 42  1  0  0  0  0
 22 24  2  0  0  0  0
 22 43  1  0  0  0  0
 23 24  1  0  0  0  0
 23 44  1  0  0  0  0
 24 45  1  0  0  0  0
M  END
> <PUBCHEM_COMPOUND_CID>
11912

> <PUBCHEM_COMPOUND_CANONICALIZED>
1

> <PUBCHEM_CACTVS_COMPLEXITY>
454

> <PUBCHEM_CACTVS_HBOND_ACCEPTOR>
4

> <PUBCHEM_CACTVS_HBOND_DONOR>
0

> <PUBCHEM_CACTVS_ROTATABLE_BOND>
6

> <PUBCHEM_CACTVS_SUBSKEYS>
AAADceB6MAAAAAAAAAAAAAAAAAAAAAAAAAAwYIAAAAAAAACBQAAAHgAAAAAADAThmAYyBoMABACIAqBSAAACCAAkIAAIiAEOCMgMJzaENRqGOWCn4BUIqYeI7KzOIAAACAAIAABAAAAQABAAAAAAAAAAAA==

> <PUBCHEM_IUPAC_OPENEYE_NAME>
7-[3-(dimethylamino)propoxy]-2-phenyl-chromen-4-one

> <PUBCHEM_IUPAC_CAS_NAME>
7-[3-(dimethylamino)propoxy]-2-phenyl-1-benzopyran-4-one

> <PUBCHEM_IUPAC_NAME>
7-[3-(dimethylamino)propoxy]-2-phenylchromen-4-one

> <PUBCHEM_IUPAC_SYSTEMATIC_NAME>
7-[3-(dimethylamino)propoxy]-2-phenyl-chromen-4-one

> <PUBCHEM_IUPAC_TRADITIONAL_NAME>
7-[3-(dimethylamino)propoxy]-2-phenyl-chromone

> <PUBCHEM_IUPAC_INCHI>
InChI=1S/C20H21NO3/c1-21(2)11-6-12-23-16-9-10-17-18(22)14-19(24-20(17)13-16)15-7-4-3-5-8-15/h3-5,7-10,13-14H,6,11-12H2,1-2H3

> <PUBCHEM_IUPAC_INCHIKEY>
GTYLAXADLIHMMY-UHFFFAOYSA-N

> <PUBCHEM_XLOGP3>
4.3

> <PUBCHEM_EXACT_MASS>
323.152144

> <PUBCHEM_MOLECULAR_FORMULA>
C20H21NO3

> <PUBCHEM_MOLECULAR_WEIGHT>
323.38564

> <PUBCHEM_OPENEYE_CAN_SMILES>
CN(C)CCCOC1=CC2=C(C=C1)C(=O)C=C(O2)C3=CC=CC=C3

> <PUBCHEM_OPENEYE_ISO_SMILES>
CN(C)CCCOC1=CC2=C(C=C1)C(=O)C=C(O2)C3=CC=CC=C3

> <PUBCHEM_CACTVS_TPSA>
38.8

> <PUBCHEM_MONOISOTOPIC_WEIGHT>
323.152144

> <PUBCHEM_TOTAL_CHARGE>
0

> <PUBCHEM_HEAVY_ATOM_COUNT>
24

> <PUBCHEM_ATOM_DEF_STEREO_COUNT>
0

> <PUBCHEM_ATOM_UDEF_STEREO_COUNT>
0

> <PUBCHEM_BOND_DEF_STEREO_COUNT>
0

> <PUBCHEM_BOND_UDEF_STEREO_COUNT>
0

> <PUBCHEM_ISOTOPIC_ATOM_COUNT>
0

> <PUBCHEM_COMPONENT_COUNT>
1

> <PUBCHEM_CACTVS_TAUTO_COUNT>
1

> <PUBCHEM_COORDINATE_TYPE>
1
5
255

> <PUBCHEM_BONDANNOTATIONS>
10  11  8
10  14  8
12  14  8
13  18  8
17  18  8
19  20  8
19  21  8
2  13  8
2  9  8
20  22  8
21  23  8
22  24  8
23  24  8
8  12  8
8  17  8
8  9  8
9  11  8

$$$$

