583433
  -OEChem-06241222452D

 18 19  0     0  0  0  0  0  0999 V2000
    3.7320    0.0000    0.0000 N   0  0  0  0  0  0  0  0  0  0  0  0
    2.0000   -1.0000    0.0000 N   0  0  0  0  0  0  0  0  0  0  0  0
    3.7320   -1.0000    0.0000 C   0  0  0  0  0  0  0  0  0  0  0  0
    2.8660    0.5000    0.0000 C   0  0  0  0  0  0  0  0  0  0  0  0
    4.6783    0.3047    0.0000 C   0  0  0  0  0  0  0  0  0  0  0  0
    4.6783   -1.3047    0.0000 C   0  0  0  0  0  0  0  0  0  0  0  0
    5.2619   -0.5000    0.0000 C   0  0  0  0  0  0  0  0  0  0  0  0
    2.8660   -1.5000    0.0000 C   0  0  0  0  0  0  0  0  0  0  0  0
    2.8660    1.5000    0.0000 C   0  0  0  0  0  0  0  0  0  0  0  0
    2.0000    0.0000    0.0000 C   0  0  0  0  0  0  0  0  0  0  0  0
    4.8709    0.8941    0.0000 H   0  0  0  0  0  0  0  0  0  0  0  0
    4.8709   -1.8940    0.0000 H   0  0  0  0  0  0  0  0  0  0  0  0
    5.8819   -0.5000    0.0000 H   0  0  0  0  0  0  0  0  0  0  0  0
    2.8660   -2.1200    0.0000 H   0  0  0  0  0  0  0  0  0  0  0  0
    3.4860    1.5000    0.0000 H   0  0  0  0  0  0  0  0  0  0  0  0
    2.8660    2.1200    0.0000 H   0  0  0  0  0  0  0  0  0  0  0  0
    2.2460    1.5000    0.0000 H   0  0  0  0  0  0  0  0  0  0  0  0
    1.4631    0.3100    0.0000 H   0  0  0  0  0  0  0  0  0  0  0  0
  1  3  1  0  0  0  0
  1  4  1  0  0  0  0
  1  5  1  0  0  0  0
  2  8  2  0  0  0  0
  2 10  1  0  0  0  0
  3  6  2  0  0  0  0
  3  8  1  0  0  0  0
  4  9  1  0  0  0  0
  4 10  2  0  0  0  0
  5  7  2  0  0  0  0
  5 11  1  0  0  0  0
  6  7  1  0  0  0  0
  6 12  1  0  0  0  0
  7 13  1  0  0  0  0
  8 14  1  0  0  0  0
  9 15  1  0  0  0  0
  9 16  1  0  0  0  0
  9 17  1  0  0  0  0
 10 18  1  0  0  0  0
M  END
> <PUBCHEM_COMPOUND_CID>
583433

> <PUBCHEM_COMPOUND_CANONICALIZED>
1

> <PUBCHEM_CACTVS_COMPLEXITY>
124

> <PUBCHEM_CACTVS_HBOND_ACCEPTOR>
1

> <PUBCHEM_CACTVS_HBOND_DONOR>
0

> <PUBCHEM_CACTVS_ROTATABLE_BOND>
0

> <PUBCHEM_CACTVS_SUBSKEYS>
AAADccBzAAAAAAAAAAAAAAAAAAAAAWAAAAAsAAAAAAAAAFgB4AAAHAAAAAAACAjBFgQ+wLMMGACgATRnRACCgCQxEiAI2CA4dJgIYOLAkZGUIAhggADIyAYQAAAAAAAAAAAAAAAAAAAAAAAAAAAAAAAAAA==

> <PUBCHEM_IUPAC_OPENEYE_NAME>
4-methylpyrrolo[1,2-a]pyrazine

> <PUBCHEM_IUPAC_CAS_NAME>
4-methylpyrrolo[1,2-a]pyrazine

> <PUBCHEM_IUPAC_NAME>
4-methylpyrrolo[1,2-a]pyrazine

> <PUBCHEM_IUPAC_SYSTEMATIC_NAME>
4-methylpyrrolo[1,2-a]pyrazine

> <PUBCHEM_IUPAC_TRADITIONAL_NAME>
4-methylpyrrolo[1,2-a]pyrazine

> <PUBCHEM_IUPAC_INCHI>
InChI=1S/C8H8N2/c1-7-5-9-6-8-3-2-4-10(7)8/h2-6H,1H3

> <PUBCHEM_IUPAC_INCHIKEY>
GCXGRZISVBCADH-UHFFFAOYSA-N

> <PUBCHEM_XLOGP3_AA>
1.8

> <PUBCHEM_EXACT_MASS>
132.068748

> <PUBCHEM_MOLECULAR_FORMULA>
C8H8N2

> <PUBCHEM_MOLECULAR_WEIGHT>
132.16252

> <PUBCHEM_OPENEYE_CAN_SMILES>
CC1=CN=CC2=CC=CN12

> <PUBCHEM_OPENEYE_ISO_SMILES>
CC1=CN=CC2=CC=CN12

> <PUBCHEM_CACTVS_TPSA>
17.3

> <PUBCHEM_MONOISOTOPIC_WEIGHT>
132.068748

> <PUBCHEM_TOTAL_CHARGE>
0

> <PUBCHEM_HEAVY_ATOM_COUNT>
10

> <PUBCHEM_ATOM_DEF_STEREO_COUNT>
0

> <PUBCHEM_ATOM_UDEF_STEREO_COUNT>
0

> <PUBCHEM_BOND_DEF_STEREO_COUNT>
0

> <PUBCHEM_BOND_UDEF_STEREO_COUNT>
0

> <PUBCHEM_ISOTOPIC_ATOM_COUNT>
0

> <PUBCHEM_COMPONENT_COUNT>
1

> <PUBCHEM_CACTVS_TAUTO_COUNT>
1

> <PUBCHEM_COORDINATE_TYPE>
1
5
255

> <PUBCHEM_BONDANNOTATIONS>
1  3  8
1  4  8
1  5  8
2  10  8
2  8  8
3  6  8
3  8  8
4  10  8
5  7  8
6  7  8

$$$$

