51090882
  -OEChem-06241223002D

 41 44  0     0  0  0  0  0  0999 V2000
    6.7619    1.7811    0.0000 O   0  0  0  0  0  0  0  0  0  0  0  0
    2.0000    3.4151    0.0000 O   0  5  0  0  0  0  0  0  0  0  0  0
    3.7320    3.4151    0.0000 O   0  0  0  0  0  0  0  0  0  0  0  0
    6.7619    0.0490    0.0000 N   0  0  0  0  0  0  0  0  0  0  0  0
    4.6783    1.7198    0.0000 N   0  0  0  0  0  0  0  0  0  0  0  0
    7.7619   -3.4151    0.0000 N   0  0  0  0  0  0  0  0  0  0  0  0
    2.8660    2.9151    0.0000 N   0  3  0  0  0  0  0  0  0  0  0  0
    7.7619    0.0490    0.0000 C   0  0  0  0  0  0  0  0  0  0  0  0
    8.6279   -0.4510    0.0000 C   0  0  0  0  0  0  0  0  0  0  0  0
    8.6279    0.5490    0.0000 C   0  0  0  0  0  0  0  0  0  0  0  0
    6.2619   -0.8170    0.0000 C   0  0  0  0  0  0  0  0  0  0  0  0
    6.2619    0.9151    0.0000 C   0  0  0  0  0  0  0  0  0  0  0  0
    5.2619    0.9151    0.0000 C   0  0  0  0  0  0  0  0  0  0  0  0
    6.7619   -1.6830    0.0000 C   0  0  0  0  0  0  0  0  0  0  0  0
    4.6783    0.1103    0.0000 C   0  0  0  0  0  0  0  0  0  0  0  0
    3.7320    1.4151    0.0000 C   0  0  0  0  0  0  0  0  0  0  0  0
    3.7320    0.4151    0.0000 C   0  0  0  0  0  0  0  0  0  0  0  0
    7.7619   -1.6830    0.0000 C   0  0  0  0  0  0  0  0  0  0  0  0
    6.2619   -2.5490    0.0000 C   0  0  0  0  0  0  0  0  0  0  0  0
    2.8660    1.9151    0.0000 C   0  0  0  0  0  0  0  0  0  0  0  0
    2.8660   -0.0849    0.0000 C   0  0  0  0  0  0  0  0  0  0  0  0
    2.0000    1.4151    0.0000 C   0  0  0  0  0  0  0  0  0  0  0  0
    8.2619   -2.5490    0.0000 C   0  0  0  0  0  0  0  0  0  0  0  0
    6.7619   -3.4151    0.0000 C   0  0  0  0  0  0  0  0  0  0  0  0
    2.0000    0.4151    0.0000 C   0  0  0  0  0  0  0  0  0  0  0  0
    7.6014    0.6479    0.0000 H   0  0  0  0  0  0  0  0  0  0  0  0
    8.4158   -1.0336    0.0000 H   0  0  0  0  0  0  0  0  0  0  0  0
    9.2385   -0.5586    0.0000 H   0  0  0  0  0  0  0  0  0  0  0  0
    9.2385    0.6567    0.0000 H   0  0  0  0  0  0  0  0  0  0  0  0
    8.4158    1.1316    0.0000 H   0  0  0  0  0  0  0  0  0  0  0  0
    5.7869   -0.4185    0.0000 H   0  0  0  0  0  0  0  0  0  0  0  0
    5.7869   -1.2155    0.0000 H   0  0  0  0  0  0  0  0  0  0  0  0
    4.8709    2.3091    0.0000 H   0  0  0  0  0  0  0  0  0  0  0  0
    4.8709   -0.4790    0.0000 H   0  0  0  0  0  0  0  0  0  0  0  0
    8.0719   -1.1461    0.0000 H   0  0  0  0  0  0  0  0  0  0  0  0
    5.6419   -2.5490    0.0000 H   0  0  0  0  0  0  0  0  0  0  0  0
    2.8660   -0.7049    0.0000 H   0  0  0  0  0  0  0  0  0  0  0  0
    1.4631    1.7251    0.0000 H   0  0  0  0  0  0  0  0  0  0  0  0
    1.4631    0.1051    0.0000 H   0  0  0  0  0  0  0  0  0  0  0  0
    8.8819   -2.5490    0.0000 H   0  0  0  0  0  0  0  0  0  0  0  0
    6.4519   -3.9520    0.0000 H   0  0  0  0  0  0  0  0  0  0  0  0
  1 12  2  0  0  0  0
  2  7  1  0  0  0  0
  3  7  2  0  0  0  0
  4  8  1  0  0  0  0
  4 11  1  0  0  0  0
  4 12  1  0  0  0  0
  5 13  1  0  0  0  0
  5 16  1  0  0  0  0
  5 33  1  0  0  0  0
  6 23  2  0  0  0  0
  6 24  1  0  0  0  0
  7 20  1  0  0  0  0
  8  9  1  0  0  0  0
  8 10  1  0  0  0  0
  8 26  1  0  0  0  0
  9 10  1  0  0  0  0
  9 27  1  0  0  0  0
  9 28  1  0  0  0  0
 10 29  1  0  0  0  0
 10 30  1  0  0  0  0
 11 14  1  0  0  0  0
 11 31  1  0  0  0  0
 11 32  1  0  0  0  0
 12 13  1  0  0  0  0
 13 15  2  0  0  0  0
 14 18  2  0  0  0  0
 14 19  1  0  0  0  0
 15 17  1  0  0  0  0
 15 34  1  0  0  0  0
 16 17  2  0  0  0  0
 16 20  1  0  0  0  0
 17 21  1  0  0  0  0
 18 23  1  0  0  0  0
 18 35  1  0  0  0  0
 19 24  2  0  0  0  0
 19 36  1  0  0  0  0
 20 22  2  0  0  0  0
 21 25  2  0  0  0  0
 21 37  1  0  0  0  0
 22 25  1  0  0  0  0
 22 38  1  0  0  0  0
 23 40  1  0  0  0  0
 24 41  1  0  0  0  0
 25 39  1  0  0  0  0
M  CHG  2   2  -1   7   1
M  END
> <PUBCHEM_COMPOUND_CID>
51090882

> <PUBCHEM_COMPOUND_CANONICALIZED>
1

> <PUBCHEM_CACTVS_COMPLEXITY>
513

> <PUBCHEM_CACTVS_HBOND_ACCEPTOR>
4

> <PUBCHEM_CACTVS_HBOND_DONOR>
1

> <PUBCHEM_CACTVS_ROTATABLE_BOND>
4

> <PUBCHEM_CACTVS_SUBSKEYS>
AAADceB7sAAAAAAAAAAAAAAAGAAAAWAAAAA8QAAAAAAAAFgB/AAAHgAUAAAADCjBngQ8wPPZ0ACpAzV3VwCCgCA3EiAo2SG4dNoIYPLAlbGUIQhgloDIyYcYiYCeAAAAQAACACAAAACAAAQAQAAAAAAAAA==

> <PUBCHEM_IUPAC_OPENEYE_NAME>
N-cyclopropyl-7-nitro-N-(4-pyridylmethyl)-1H-indole-2-carboxamide

> <PUBCHEM_IUPAC_CAS_NAME>
N-cyclopropyl-7-nitro-N-(pyridin-4-ylmethyl)-1H-indole-2-carboxamide

> <PUBCHEM_IUPAC_NAME>
N-cyclopropyl-7-nitro-N-(pyridin-4-ylmethyl)-1H-indole-2-carboxamide

> <PUBCHEM_IUPAC_SYSTEMATIC_NAME>
N-cyclopropyl-7-nitro-N-(pyridin-4-ylmethyl)-1H-indole-2-carboxamide

> <PUBCHEM_IUPAC_TRADITIONAL_NAME>
N-cyclopropyl-7-nitro-N-(4-pyridylmethyl)-1H-indole-2-carboxamide

> <PUBCHEM_IUPAC_INCHI>
InChI=1S/C18H16N4O3/c23-18(21(14-4-5-14)11-12-6-8-19-9-7-12)15-10-13-2-1-3-16(22(24)25)17(13)20-15/h1-3,6-10,14,20H,4-5,11H2

> <PUBCHEM_IUPAC_INCHIKEY>
KITHNXNHWORSDV-UHFFFAOYSA-N

> <PUBCHEM_XLOGP3_AA>
2.6

> <PUBCHEM_EXACT_MASS>
336.12224

> <PUBCHEM_MOLECULAR_FORMULA>
C18H16N4O3

> <PUBCHEM_MOLECULAR_WEIGHT>
336.34464

> <PUBCHEM_OPENEYE_CAN_SMILES>
C1CC1N(CC2=CC=NC=C2)C(=O)C3=CC4=C(N3)C(=CC=C4)[N+](=O)[O-]

> <PUBCHEM_OPENEYE_ISO_SMILES>
C1CC1N(CC2=CC=NC=C2)C(=O)C3=CC4=C(N3)C(=CC=C4)[N+](=O)[O-]

> <PUBCHEM_CACTVS_TPSA>
94.8

> <PUBCHEM_MONOISOTOPIC_WEIGHT>
336.12224

> <PUBCHEM_TOTAL_CHARGE>
0

> <PUBCHEM_HEAVY_ATOM_COUNT>
25

> <PUBCHEM_ATOM_DEF_STEREO_COUNT>
0

> <PUBCHEM_ATOM_UDEF_STEREO_COUNT>
0

> <PUBCHEM_BOND_DEF_STEREO_COUNT>
0

> <PUBCHEM_BOND_UDEF_STEREO_COUNT>
0

> <PUBCHEM_ISOTOPIC_ATOM_COUNT>
0

> <PUBCHEM_COMPONENT_COUNT>
1

> <PUBCHEM_CACTVS_TAUTO_COUNT>
6

> <PUBCHEM_COORDINATE_TYPE>
1
5
255

> <PUBCHEM_BONDANNOTATIONS>
13  15  8
14  18  8
14  19  8
15  17  8
16  17  8
16  20  8
17  21  8
18  23  8
19  24  8
20  22  8
21  25  8
22  25  8
5  13  8
5  16  8
6  23  8
6  24  8

$$$$

