586237
  -OEChem-06241222463D

 42 44  0     1  0  0  0  0  0999 V2000
    0.2503    0.3631   -1.1645 O   0  0  0  0  0  0  0  0  0  0  0  0
   -5.0568    1.1755   -0.9448 O   0  0  0  0  0  0  0  0  0  0  0  0
   -1.3526    0.0028    0.6553 C   0  0  2  0  0  0  0  0  0  0  0  0
    0.1391   -0.1853    0.1621 C   0  0  1  0  0  0  0  0  0  0  0  0
   -2.2853   -0.9175   -0.1480 C   0  0  0  0  0  0  0  0  0  0  0  0
    0.5486   -1.6707    0.0686 C   0  0  0  0  0  0  0  0  0  0  0  0
   -1.7831    1.4914    0.4731 C   0  0  0  0  0  0  0  0  0  0  0  0
   -1.8452   -2.3553   -0.3102 C   0  0  0  0  0  0  0  0  0  0  0  0
   -0.4118   -2.4698   -0.8087 C   0  0  0  0  0  0  0  0  0  0  0  0
    1.1658    0.5622    1.0283 C   0  0  0  0  0  0  0  0  0  0  0  0
   -1.5065   -0.3714    2.1506 C   0  0  0  0  0  0  0  0  0  0  0  0
   -3.2852    1.7067    0.5762 C   0  0  0  0  0  0  0  0  0  0  0  0
   -3.4605   -0.5258   -0.6684 C   0  0  0  0  0  0  0  0  0  0  0  0
   -4.0048    0.8276   -0.4124 C   0  0  0  0  0  0  0  0  0  0  0  0
    2.5418    0.4752    0.4374 C   0  0  0  0  0  0  0  0  0  0  0  0
    3.3794   -0.5760    0.7940 C   0  0  0  0  0  0  0  0  0  0  0  0
    2.9679    1.4462   -0.4623 C   0  0  0  0  0  0  0  0  0  0  0  0
    4.6589   -0.6571    0.2444 C   0  0  0  0  0  0  0  0  0  0  0  0
    4.2474    1.3650   -1.0120 C   0  0  0  0  0  0  0  0  0  0  0  0
    5.0928    0.3133   -0.6586 C   0  0  0  0  0  0  0  0  0  0  0  0
    0.6121   -2.1288    1.0621 H   0  0  0  0  0  0  0  0  0  0  0  0
    1.5197   -1.7912   -0.4203 H   0  0  0  0  0  0  0  0  0  0  0  0
   -1.4914    1.8687   -0.5131 H   0  0  0  0  0  0  0  0  0  0  0  0
   -1.2848    2.1317    1.2102 H   0  0  0  0  0  0  0  0  0  0  0  0
   -1.9354   -2.8631    0.6581 H   0  0  0  0  0  0  0  0  0  0  0  0
   -2.5017   -2.8973   -1.0020 H   0  0  0  0  0  0  0  0  0  0  0  0
   -0.1101   -3.5238   -0.8148 H   0  0  0  0  0  0  0  0  0  0  0  0
   -0.3516   -2.1206   -1.8472 H   0  0  0  0  0  0  0  0  0  0  0  0
    1.1865    0.1664    2.0511 H   0  0  0  0  0  0  0  0  0  0  0  0
    0.9055    1.6234    1.1229 H   0  0  0  0  0  0  0  0  0  0  0  0
   -0.9991    0.3509    2.7992 H   0  0  0  0  0  0  0  0  0  0  0  0
   -2.5590   -0.3905    2.4569 H   0  0  0  0  0  0  0  0  0  0  0  0
   -1.0941   -1.3600    2.3753 H   0  0  0  0  0  0  0  0  0  0  0  0
   -3.5155    2.7524    0.3436 H   0  0  0  0  0  0  0  0  0  0  0  0
   -3.6624    1.4919    1.5808 H   0  0  0  0  0  0  0  0  0  0  0  0
   -4.0879   -1.2020   -1.2397 H   0  0  0  0  0  0  0  0  0  0  0  0
    0.3075    1.3304   -1.1076 H   0  0  0  0  0  0  0  0  0  0  0  0
    3.0625   -1.3316    1.5075 H   0  0  0  0  0  0  0  0  0  0  0  0
    2.3268    2.2783   -0.7396 H   0  0  0  0  0  0  0  0  0  0  0  0
    5.3185   -1.4740    0.5223 H   0  0  0  0  0  0  0  0  0  0  0  0
    4.5865    2.1220   -1.7130 H   0  0  0  0  0  0  0  0  0  0  0  0
    6.0895    0.2509   -1.0855 H   0  0  0  0  0  0  0  0  0  0  0  0
  1  4  1  0  0  0  0
  1 37  1  0  0  0  0
  2 14  2  0  0  0  0
  3  4  1  0  0  0  0
  3  5  1  0  0  0  0
  3  7  1  0  0  0  0
  3 11  1  0  0  0  0
  4  6  1  0  0  0  0
  4 10  1  0  0  0  0
  5  8  1  0  0  0  0
  5 13  2  0  0  0  0
  6  9  1  0  0  0  0
  6 21  1  0  0  0  0
  6 22  1  0  0  0  0
  7 12  1  0  0  0  0
  7 23  1  0  0  0  0
  7 24  1  0  0  0  0
  8  9  1  0  0  0  0
  8 25  1  0  0  0  0
  8 26  1  0  0  0  0
  9 27  1  0  0  0  0
  9 28  1  0  0  0  0
 10 15  1  0  0  0  0
 10 29  1  0  0  0  0
 10 30  1  0  0  0  0
 11 31  1  0  0  0  0
 11 32  1  0  0  0  0
 11 33  1  0  0  0  0
 12 14  1  0  0  0  0
 12 34  1  0  0  0  0
 12 35  1  0  0  0  0
 13 14  1  0  0  0  0
 13 36  1  0  0  0  0
 15 16  2  0  0  0  0
 15 17  1  0  0  0  0
 16 18  1  0  0  0  0
 16 38  1  0  0  0  0
 17 19  2  0  0  0  0
 17 39  1  0  0  0  0
 18 20  2  0  0  0  0
 18 40  1  0  0  0  0
 19 20  1  0  0  0  0
 19 41  1  0  0  0  0
 20 42  1  0  0  0  0
M  END
> <PUBCHEM_COMPOUND_CID>
586237

> <PUBCHEM_CONFORMER_RMSD>
0.6

> <PUBCHEM_CONFORMER_DIVERSEORDER>
3
1
5
6
2
4

> <PUBCHEM_MMFF94_PARTIAL_CHARGES>
23
1 -0.68
10 0.14
12 0.06
13 -0.14
14 0.49
15 -0.14
16 -0.15
17 -0.15
18 -0.15
19 -0.15
2 -0.57
20 -0.15
3 0.14
36 0.15
37 0.4
38 0.15
39 0.15
4 0.28
40 0.15
41 0.15
42 0.15
5 -0.28
8 0.14

> <PUBCHEM_EFFECTIVE_ROTOR_COUNT>
3.2

> <PUBCHEM_PHARMACOPHORE_FEATURES>
6
1 1 acceptor
1 1 donor
1 2 acceptor
6 15 16 17 18 19 20 rings
6 3 4 5 6 8 9 rings
6 3 5 7 12 13 14 rings

> <PUBCHEM_HEAVY_ATOM_COUNT>
20

> <PUBCHEM_ATOM_DEF_STEREO_COUNT>
0

> <PUBCHEM_ATOM_UDEF_STEREO_COUNT>
2

> <PUBCHEM_BOND_DEF_STEREO_COUNT>
0

> <PUBCHEM_BOND_UDEF_STEREO_COUNT>
0

> <PUBCHEM_ISOTOPIC_ATOM_COUNT>
0

> <PUBCHEM_COMPONENT_COUNT>
1

> <PUBCHEM_CACTVS_TAUTO_COUNT>
5

> <PUBCHEM_CONFORMER_ID>
0008F1FD00000003

> <PUBCHEM_MMFF94_ENERGY>
58.0185

> <PUBCHEM_FEATURE_SELFOVERLAP>
30.465

> <PUBCHEM_SHAPE_FINGERPRINT>
10366900 7 16443339863232094130
10498660 4 18336262349701787152
10948715 1 18201442518942319259
11315181 36 17240760667171425696
12173636 292 18335989666406742828
12236239 1 18202848750910871584
12363563 72 15936402321700263224
12403259 415 18187651267132811049
12592029 89 18411417353652056155
128620 24 6771866264470508708
12892183 10 14117243931249513669
13103583 49 9510604710133264701
13583140 156 17632287973981505361
13675066 3 12175636057301265792
15099037 51 18410014355424105500
16752209 62 18187939317583586966
16945 1 18114753624625779219
17349148 13 17458059395856475890
17870717 6 17822276977611923012
18186145 218 17676204637184441320
187816 3 17603308159014304273
19784866 170 12319459917365704000
19862831 5 17967533467178539458
19868273 293 18335983082243048354
200 152 15502375629694422209
20602899 9 17749104487294658799
20645476 183 18341897342130075630
21524375 3 18411421751777181659
21637258 2 4678521495676196325
22907989 373 18043803178609308125
23366157 5 18052533571607070127
23402539 116 18187092753943935885
23402655 69 18272367539016058012
23493267 7 18272093773120769051
23559900 14 17968380048836693872
2838139 119 17344933990607965061
296302 2 17131833170260470851
3004659 81 18410291459000126966
34934 24 18059859433252373008
3759504 43 18202001010477471155
474 4 18131069367684981091
5104073 3 18271808982619002392
559249 180 18409731781527039402
633830 44 17346597431430726514
69474 34 11959723876665488263
74978 22 18261673658579962752
8272917 22 17916872442653538722

> <PUBCHEM_SHAPE_MULTIPOLES>
399.85
9.21
2.05
1.24
5.09
0.86
-0.38
-3.4
2.42
-1.07
0.37
-0.2
-0.06
-0.53

> <PUBCHEM_SHAPE_SELFOVERLAP>
858.506

> <PUBCHEM_SHAPE_VOLUME>
217.5

> <PUBCHEM_COORDINATE_TYPE>
2
5
10

$$$$

