8630
  -OEChem-06261202583D

 17 17  0     0  0  0  0  0  0999 V2000
    1.3371   -2.3214   -0.0947 Cl  0  0  0  0  0  0  0  0  0  0  0  0
   -2.7600    2.3872    0.1264 Cl  0  0  0  0  0  0  0  0  0  0  0  0
    2.4365    1.4167   -0.9928 O   0  0  0  0  0  0  0  0  0  0  0  0
    2.8781    0.2618    0.9145 O   0  0  0  0  0  0  0  0  0  0  0  0
   -1.6663   -2.6017   -0.1196 N   0  0  0  0  0  0  0  0  0  0  0  0
    0.6530    0.3024    0.0364 C   0  0  0  0  0  0  0  0  0  0  0  0
   -1.1709   -1.2797   -0.0500 C   0  0  0  0  0  0  0  0  0  0  0  0
    0.1983   -1.0146   -0.0317 C   0  0  0  0  0  0  0  0  0  0  0  0
   -0.2618    1.3542    0.0862 C   0  0  0  0  0  0  0  0  0  0  0  0
   -2.0857   -0.2278   -0.0003 C   0  0  0  0  0  0  0  0  0  0  0  0
   -1.6312    1.0892    0.0678 C   0  0  0  0  0  0  0  0  0  0  0  0
    2.0730    0.6337    0.0578 C   0  0  0  0  0  0  0  0  0  0  0  0
    0.0899    2.3824    0.1433 H   0  0  0  0  0  0  0  0  0  0  0  0
   -3.1538   -0.4344   -0.0151 H   0  0  0  0  0  0  0  0  0  0  0  0
   -2.6630   -2.7720   -0.1301 H   0  0  0  0  0  0  0  0  0  0  0  0
   -1.0191   -3.3781   -0.1549 H   0  0  0  0  0  0  0  0  0  0  0  0
    3.3926    1.6353   -0.9720 H   0  0  0  0  0  0  0  0  0  0  0  0
  1  8  1  0  0  0  0
  2 11  1  0  0  0  0
  3 12  1  0  0  0  0
  3 17  1  0  0  0  0
  4 12  2  0  0  0  0
  5  7  1  0  0  0  0
  5 15  1  0  0  0  0
  5 16  1  0  0  0  0
  6  8  2  0  0  0  0
  6  9  1  0  0  0  0
  6 12  1  0  0  0  0
  7  8  1  0  0  0  0
  7 10  2  0  0  0  0
  9 11  2  0  0  0  0
  9 13  1  0  0  0  0
 10 11  1  0  0  0  0
 10 14  1  0  0  0  0
M  END
> <PUBCHEM_COMPOUND_CID>
8630

> <PUBCHEM_CONFORMER_RMSD>
0.4

> <PUBCHEM_CONFORMER_DIVERSEORDER>
1
2

> <PUBCHEM_MMFF94_PARTIAL_CHARGES>
17
1 -0.18
10 -0.15
11 0.18
12 0.63
13 0.15
14 0.15
15 0.4
16 0.4
17 0.5
2 -0.18
3 -0.65
4 -0.57
5 -0.9
6 0.09
7 0.1
8 0.18
9 -0.15

> <PUBCHEM_EFFECTIVE_ROTOR_COUNT>
1

> <PUBCHEM_PHARMACOPHORE_FEATURES>
6
1 3 acceptor
1 4 acceptor
1 5 cation
1 5 donor
3 3 4 12 anion
6 6 7 8 9 10 11 rings

> <PUBCHEM_HEAVY_ATOM_COUNT>
12

> <PUBCHEM_ATOM_DEF_STEREO_COUNT>
0

> <PUBCHEM_ATOM_UDEF_STEREO_COUNT>
0

> <PUBCHEM_BOND_DEF_STEREO_COUNT>
0

> <PUBCHEM_BOND_UDEF_STEREO_COUNT>
0

> <PUBCHEM_ISOTOPIC_ATOM_COUNT>
0

> <PUBCHEM_COMPONENT_COUNT>
1

> <PUBCHEM_CACTVS_TAUTO_COUNT>
1

> <PUBCHEM_CONFORMER_ID>
000021B600000001

> <PUBCHEM_MMFF94_ENERGY>
43.5662

> <PUBCHEM_FEATURE_SELFOVERLAP>
30.503

> <PUBCHEM_SHAPE_FINGERPRINT>
1 1 17905329876959029573
11680986 33 18194117645002273074
12423570 1 6084733550681996135
13380535 21 18337375149757572625
13380535 76 18336837492861380119
13380536 305 17977656838270839677
16945 1 18337390448494416937
193761 8 18410291458129740807
20510252 161 18117555137303692664
20511035 2 18262803011139507263
20871998 184 18116995489990081255
21040471 1 18409448128236680889
21501502 16 18337675320663892095
23552423 10 18342454854897382918
23559900 14 18187356671932980708
241688 4 16031824928622722379
2748010 2 18267015249123279983
5084963 1 17897432913754567818
528862 383 18054231195926530433
53812653 8 18197771103430064044
7364860 26 17828207919130425730
81228 2 18265051341014996465

> <PUBCHEM_SHAPE_MULTIPOLES>
233.97
3.81
2.72
0.72
0.85
1.43
-0.01
-2.05
0.26
-0.03
-0.24
-0.24
-0.18
-0.13

> <PUBCHEM_SHAPE_SELFOVERLAP>
476.752

> <PUBCHEM_SHAPE_VOLUME>
138.1

> <PUBCHEM_COORDINATE_TYPE>
2
5
10

$$$$

