17396206
  -OEChem-06241222553D

 40 41  0     1  0  0  0  0  0999 V2000
    0.2902    2.5177    0.5257 O   0  0  0  0  0  0  0  0  0  0  0  0
   -1.8467   -1.7918    2.2258 O   0  0  0  0  0  0  0  0  0  0  0  0
   -1.3891   -1.1304    0.0415 N   0  0  0  0  0  0  0  0  0  0  0  0
    1.2010    0.6427   -0.5593 N   0  0  0  0  0  0  0  0  0  0  0  0
    6.4194   -2.0847   -1.1078 N   0  0  0  0  0  0  0  0  0  0  0  0
   -1.9303    0.2086    0.1237 C   0  0  1  0  0  0  0  0  0  0  0  0
   -1.1462    1.1483   -0.8048 C   0  0  0  0  0  0  0  0  0  0  0  0
   -3.4204    0.2048   -0.1525 C   0  0  0  0  0  0  0  0  0  0  0  0
    0.1972    1.5343   -0.2037 C   0  0  0  0  0  0  0  0  0  0  0  0
   -4.2545    1.1058    0.5093 C   0  0  0  0  0  0  0  0  0  0  0  0
   -3.9578   -0.6999   -1.0681 C   0  0  0  0  0  0  0  0  0  0  0  0
   -1.3958   -2.0150    1.1053 C   0  0  0  0  0  0  0  0  0  0  0  0
   -5.6260    1.1024    0.2553 C   0  0  0  0  0  0  0  0  0  0  0  0
   -5.3294   -0.7034   -1.3221 C   0  0  0  0  0  0  0  0  0  0  0  0
    2.5649    0.6859   -0.1869 C   0  0  0  0  0  0  0  0  0  0  0  0
   -6.1635    0.1978   -0.6604 C   0  0  0  0  0  0  0  0  0  0  0  0
   -0.7950   -3.3462    0.7418 C   0  0  0  0  0  0  0  0  0  0  0  0
    3.4431   -0.2993   -0.6382 C   0  0  0  0  0  0  0  0  0  0  0  0
    3.0316    1.7143    0.6318 C   0  0  0  0  0  0  0  0  0  0  0  0
    4.7880   -0.2562   -0.2708 C   0  0  0  0  0  0  0  0  0  0  0  0
    4.3765    1.7575    0.9992 C   0  0  0  0  0  0  0  0  0  0  0  0
    5.2547    0.7723    0.5478 C   0  0  0  0  0  0  0  0  0  0  0  0
    5.6882   -1.2652   -0.7328 C   0  0  0  0  0  0  0  0  0  0  0  0
   -1.7881    0.5366    1.1627 H   0  0  0  0  0  0  0  0  0  0  0  0
   -1.0050    0.7080   -1.7998 H   0  0  0  0  0  0  0  0  0  0  0  0
   -1.6980    2.0848   -0.9598 H   0  0  0  0  0  0  0  0  0  0  0  0
   -1.0440   -1.4531   -0.8585 H   0  0  0  0  0  0  0  0  0  0  0  0
   -3.8477    1.8169    1.2233 H   0  0  0  0  0  0  0  0  0  0  0  0
   -3.3325   -1.4027   -1.6116 H   0  0  0  0  0  0  0  0  0  0  0  0
    0.9435   -0.1393   -1.1574 H   0  0  0  0  0  0  0  0  0  0  0  0
   -6.2755    1.8045    0.7699 H   0  0  0  0  0  0  0  0  0  0  0  0
   -5.7477   -1.4050   -2.0378 H   0  0  0  0  0  0  0  0  0  0  0  0
   -7.2313    0.1959   -0.8590 H   0  0  0  0  0  0  0  0  0  0  0  0
   -1.4820   -3.8893    0.0871 H   0  0  0  0  0  0  0  0  0  0  0  0
   -0.6220   -3.9322    1.6486 H   0  0  0  0  0  0  0  0  0  0  0  0
    0.1612   -3.2039    0.2298 H   0  0  0  0  0  0  0  0  0  0  0  0
    3.0769   -1.1011   -1.2766 H   0  0  0  0  0  0  0  0  0  0  0  0
    2.4141    2.5126    1.0187 H   0  0  0  0  0  0  0  0  0  0  0  0
    4.7412    2.5581    1.6363 H   0  0  0  0  0  0  0  0  0  0  0  0
    6.3002    0.8197    0.8428 H   0  0  0  0  0  0  0  0  0  0  0  0
  1  9  2  0  0  0  0
  2 12  2  0  0  0  0
  3  6  1  0  0  0  0
  3 12  1  0  0  0  0
  3 27  1  0  0  0  0
  4  9  1  0  0  0  0
  4 15  1  0  0  0  0
  4 30  1  0  0  0  0
  5 23  3  0  0  0  0
  6  7  1  0  0  0  0
  6  8  1  0  0  0  0
  6 24  1  0  0  0  0
  7  9  1  0  0  0  0
  7 25  1  0  0  0  0
  7 26  1  0  0  0  0
  8 10  2  0  0  0  0
  8 11  1  0  0  0  0
 10 13  1  0  0  0  0
 10 28  1  0  0  0  0
 11 14  2  0  0  0  0
 11 29  1  0  0  0  0
 12 17  1  0  0  0  0
 13 16  2  0  0  0  0
 13 31  1  0  0  0  0
 14 16  1  0  0  0  0
 14 32  1  0  0  0  0
 15 18  1  0  0  0  0
 15 19  2  0  0  0  0
 16 33  1  0  0  0  0
 17 34  1  0  0  0  0
 17 35  1  0  0  0  0
 17 36  1  0  0  0  0
 18 20  2  0  0  0  0
 18 37  1  0  0  0  0
 19 21  1  0  0  0  0
 19 38  1  0  0  0  0
 20 22  1  0  0  0  0
 20 23  1  0  0  0  0
 21 22  2  0  0  0  0
 21 39  1  0  0  0  0
 22 40  1  0  0  0  0
M  END
> <PUBCHEM_COMPOUND_CID>
17396206

> <PUBCHEM_CONFORMER_RMSD>
0.8

> <PUBCHEM_CONFORMER_DIVERSEORDER>
1
123
206
78
264
60
30
231
112
75
220
261
251
96
162
118
128
207
225
239
242
181
29
184
39
167
238
227
147
155
28
16
258
132
44
77
81
172
66
144
179
246
229
133
237
127
178
221
158
146
214
54
43
124
209
143
99
91
218
257
174
107
131
83
219
142
189
139
64
260
250
74
59
7
116
248
195
129
52
50
217
138
120
57
46
69
90
58
22
247
234
152
125
253
109
204
135
240
87
154
114
65
213
2
188
226
159
216
211
113
67
89
224
202
12
62
177
63
145
26
171
48
5
130
35
148
61
94
183
68
243
232
100
249
203
79
40
256
111
93
153
18
41
56
11
233
245
88
70
262
13
136
192
103
45
235
254
53
263
95
32
210
23
265
228
193
117
165
9
215
14
86
24
255
197
212
173
71
72
182
141
149
222
169
20
31
126
134
19
115
47
85
198
176
6
236
191
196
122
223
119
49
208
230
252
97
105
4
38
157
166
21
108
194
151
121
37
199
244
102
3
92
34
51
36
84
80
17
170
27
106
15
10
110
82
259
104
8
140
201
98
76
185
161
55
187
200
150
164
25
186
137
190
42
205
168
160
101
180
33
241
175
163
156
73

> <PUBCHEM_MMFF94_PARTIAL_CHARGES>
34
1 -0.57
10 -0.15
11 -0.15
12 0.57
13 -0.15
14 -0.15
15 0.12
16 -0.15
17 0.06
18 -0.15
19 -0.15
2 -0.57
20 0.07
21 -0.15
22 -0.15
23 0.48
27 0.37
28 0.15
29 0.15
3 -0.73
30 0.37
31 0.15
32 0.15
33 0.15
37 0.15
38 0.15
39 0.15
4 -0.55
40 0.15
5 -0.56
6 0.44
7 0.06
8 -0.14
9 0.57

> <PUBCHEM_EFFECTIVE_ROTOR_COUNT>
7

> <PUBCHEM_PHARMACOPHORE_FEATURES>
7
1 1 acceptor
1 2 acceptor
1 3 donor
1 4 donor
1 5 acceptor
6 15 18 19 20 21 22 rings
6 8 10 11 13 14 16 rings

> <PUBCHEM_HEAVY_ATOM_COUNT>
23

> <PUBCHEM_ATOM_DEF_STEREO_COUNT>
0

> <PUBCHEM_ATOM_UDEF_STEREO_COUNT>
1

> <PUBCHEM_BOND_DEF_STEREO_COUNT>
0

> <PUBCHEM_BOND_UDEF_STEREO_COUNT>
0

> <PUBCHEM_ISOTOPIC_ATOM_COUNT>
0

> <PUBCHEM_COMPONENT_COUNT>
1

> <PUBCHEM_CACTVS_TAUTO_COUNT>
4

> <PUBCHEM_CONFORMER_ID>
010971EE00000001

> <PUBCHEM_MMFF94_ENERGY>
56.9772

> <PUBCHEM_FEATURE_SELFOVERLAP>
35.52

> <PUBCHEM_SHAPE_FINGERPRINT>
107951 10 16845567612814121987
10906281 52 18336248068619270405
11036077 3 18272644688828793883
12107183 9 17245813124226106217
12166972 35 14273452557413967992
12236239 1 17458347433485381197
12555020 224 18342176661249351791
12596602 18 15647059235702441894
12643181 29 18201998833541053266
13402501 40 18411133658530538278
13533116 47 18041000644167027960
13544592 145 18412262835365272884
1361 2 18186525409980975982
14617045 38 18131346449506662666
14931854 50 18199462346062437574
15099037 51 18273217469608953717
15183329 4 18409169943205003455
15375358 24 18336546019285193904
15537594 2 16988847172426777432
15880784 105 17603867793237239662
20028762 73 17748830748002682510
20645477 70 18040715875150686260
20832881 197 18260548935299194841
21279426 13 18411704300506213893
21521239 73 18261687990981119639
21781051 124 17702646788675153747
2215653 11 18411136939821963094
23402539 116 18334018285314249205
23522609 53 18044624647399146504
23536379 177 17749109989305773629
23559900 14 18342172229381094500
23569943 247 18192429886206783291
3004659 81 18343020008659364820
3383291 50 18342176618395144611
340366 18 17346028974632965143
38695281 34 18260833722170613591
4015057 19 18262526870570544897
404807 14 16666526644019481214
4073 2 18338519612977357330
5104073 3 17603864473090311801
5385378 56 18129943507150418651
6138700 20 18337952393204308935
9709674 26 18337672988628395708
9971528 1 18410578353350235852

> <PUBCHEM_SHAPE_MULTIPOLES>
446.65
15.21
2.57
1.23
4.23
1.46
-0.28
0.99
3.91
1.09
-0.86
-0.35
0.54
1.43

> <PUBCHEM_SHAPE_SELFOVERLAP>
941.483

> <PUBCHEM_SHAPE_VOLUME>
247.4

> <PUBCHEM_COORDINATE_TYPE>
2
5
10

$$$$

