8952
  -OEChem-06261203163D

 32 32  0     0  0  0  0  0  0999 V2000
   -1.0553   -0.3561   -0.8437 S   0  0  0  0  0  0  0  0  0  0  0  0
   -4.0725    1.2771   -1.6398 S   0  0  0  0  0  0  0  0  0  0  0  0
   -2.9741    0.3782   -0.2850 P   0  0  0  0  0  0  0  0  0  0  0  0
    4.1562    1.3282   -0.4094 O   0  0  0  0  0  0  0  0  0  0  0  0
    1.2320   -2.6087    0.0877 O   0  0  0  0  0  0  0  0  0  0  0  0
   -3.7644   -0.8618    0.4306 O   0  0  0  0  0  0  0  0  0  0  0  0
   -2.7588    1.3059    1.0442 O   0  0  0  0  0  0  0  0  0  0  0  0
    2.1378   -0.4868    0.3471 N   0  0  0  0  0  0  0  0  0  0  0  0
    2.0090    0.9422    0.6520 C   0  0  0  0  0  0  0  0  0  0  0  0
    3.5160   -0.9381    0.1554 C   0  0  0  0  0  0  0  0  0  0  0  0
    2.7969    1.7693   -0.3558 C   0  0  0  0  0  0  0  0  0  0  0  0
    4.2371   -0.0347   -0.8348 C   0  0  0  0  0  0  0  0  0  0  0  0
    1.0952   -1.4108    0.3484 C   0  0  0  0  0  0  0  0  0  0  0  0
   -0.2740   -0.8795    0.6895 C   0  0  0  0  0  0  0  0  0  0  0  0
   -4.1911   -1.9768   -0.3345 C   0  0  0  0  0  0  0  0  0  0  0  0
   -2.0899    2.5525    0.9479 C   0  0  0  0  0  0  0  0  0  0  0  0
    2.4203    1.0808    1.6587 H   0  0  0  0  0  0  0  0  0  0  0  0
    0.9771    1.2896    0.6579 H   0  0  0  0  0  0  0  0  0  0  0  0
    3.5485   -1.9785   -0.1814 H   0  0  0  0  0  0  0  0  0  0  0  0
    3.9996   -0.8840    1.1379 H   0  0  0  0  0  0  0  0  0  0  0  0
    2.3562    1.7034   -1.3578 H   0  0  0  0  0  0  0  0  0  0  0  0
    2.7972    2.8228   -0.0589 H   0  0  0  0  0  0  0  0  0  0  0  0
    5.2954   -0.3074   -0.8915 H   0  0  0  0  0  0  0  0  0  0  0  0
    3.8122   -0.1250   -1.8416 H   0  0  0  0  0  0  0  0  0  0  0  0
   -0.2562   -0.0946    1.4467 H   0  0  0  0  0  0  0  0  0  0  0  0
   -0.8603   -1.7010    1.1158 H   0  0  0  0  0  0  0  0  0  0  0  0
   -5.1246   -1.7352   -0.8486 H   0  0  0  0  0  0  0  0  0  0  0  0
   -4.3692   -2.8154    0.3433 H   0  0  0  0  0  0  0  0  0  0  0  0
   -3.4305   -2.2675   -1.0629 H   0  0  0  0  0  0  0  0  0  0  0  0
   -2.8140    3.3364    0.7126 H   0  0  0  0  0  0  0  0  0  0  0  0
   -1.3118    2.5274    0.1811 H   0  0  0  0  0  0  0  0  0  0  0  0
   -1.6280    2.7752    1.9130 H   0  0  0  0  0  0  0  0  0  0  0  0
  1  3  1  0  0  0  0
  1 14  1  0  0  0  0
  2  3  2  0  0  0  0
  3  6  1  0  0  0  0
  3  7  1  0  0  0  0
  4 11  1  0  0  0  0
  4 12  1  0  0  0  0
  5 13  2  0  0  0  0
  6 15  1  0  0  0  0
  7 16  1  0  0  0  0
  8  9  1  0  0  0  0
  8 10  1  0  0  0  0
  8 13  1  0  0  0  0
  9 11  1  0  0  0  0
  9 17  1  0  0  0  0
  9 18  1  0  0  0  0
 10 12  1  0  0  0  0
 10 19  1  0  0  0  0
 10 20  1  0  0  0  0
 11 21  1  0  0  0  0
 11 22  1  0  0  0  0
 12 23  1  0  0  0  0
 12 24  1  0  0  0  0
 13 14  1  0  0  0  0
 14 25  1  0  0  0  0
 14 26  1  0  0  0  0
 15 27  1  0  0  0  0
 15 28  1  0  0  0  0
 15 29  1  0  0  0  0
 16 30  1  0  0  0  0
 16 31  1  0  0  0  0
 16 32  1  0  0  0  0
M  END
> <PUBCHEM_COMPOUND_CID>
8952

> <PUBCHEM_CONFORMER_RMSD>
0.8

> <PUBCHEM_CONFORMER_DIVERSEORDER>
1
58
69
76
61
42
57
40
28
78
60
59
48
62
27
31
73
13
6
68
34
19
47
35
33
22
84
89
23
32
71
24
15
63
39
83
65
80
3
75
25
43
21
29
54
85
18
67
45
66
30
79
26
77
53
74
16
38
10
11
8
9
46
51
82
70
55
20
37
12
14
52
36
4
44
41
87
72
49
64
17
88
7
86
90
5
56
50
81
2

> <PUBCHEM_MMFF94_PARTIAL_CHARGES>
16
1 -0.48
10 0.3
11 0.28
12 0.28
13 0.57
14 0.29
15 0.28
16 0.28
2 -0.68
3 1.47
4 -0.56
5 -0.57
6 -0.55
7 -0.55
8 -0.66
9 0.3

> <PUBCHEM_EFFECTIVE_ROTOR_COUNT>
7.2

> <PUBCHEM_PHARMACOPHORE_FEATURES>
3
1 4 acceptor
1 5 acceptor
6 4 8 9 10 11 12 rings

> <PUBCHEM_HEAVY_ATOM_COUNT>
16

> <PUBCHEM_ATOM_DEF_STEREO_COUNT>
0

> <PUBCHEM_ATOM_UDEF_STEREO_COUNT>
0

> <PUBCHEM_BOND_DEF_STEREO_COUNT>
0

> <PUBCHEM_BOND_UDEF_STEREO_COUNT>
0

> <PUBCHEM_ISOTOPIC_ATOM_COUNT>
0

> <PUBCHEM_COMPONENT_COUNT>
1

> <PUBCHEM_CACTVS_TAUTO_COUNT>
1

> <PUBCHEM_CONFORMER_ID>
000022F800000001

> <PUBCHEM_MMFF94_ENERGY>
22.7607

> <PUBCHEM_FEATURE_SELFOVERLAP>
15.223

> <PUBCHEM_SHAPE_FINGERPRINT>
10498660 4 18343025492641979661
11615757 297 18412827992620524639
12507557 5 18343029916573981664
14787075 74 18197779895423505691
17834072 14 8286203842349636382
17959699 21 18128548231168976853
18186145 218 18410570699802182620
20449540 30 18412829092760133757
21524375 3 18272088262730468914
231179 274 17917996113445720788
23402539 116 18336271163000682286
23402655 69 18410857680853256772
23557571 272 18335415756050424439
23559900 14 18194418894383103819
23598291 2 17827642770280563819
25 1 18341044203264804802
4028521 119 18342179977043063077
4990 188 18261104171628385782

> <PUBCHEM_SHAPE_MULTIPOLES>
312.36
9.12
2.47
1.13
0.01
0
-0.18
0.96
-2.42
-0.89
0.35
-0.8
0.46
-0.25

> <PUBCHEM_SHAPE_SELFOVERLAP>
563.834

> <PUBCHEM_SHAPE_VOLUME>
203

> <PUBCHEM_COORDINATE_TYPE>
2
5
10

$$$$

