7846946
  -OEChem-06241222482D

 60 64  0     1  0  0  0  0  0999 V2000
    6.3323    3.6328    0.0000 S   0  0  0  0  0  0  0  0  0  0  0  0
    3.6730   -0.9508    0.0000 O   0  0  0  0  0  0  0  0  0  0  0  0
    5.4050    0.0492    0.0000 O   0  0  0  0  0  0  0  0  0  0  0  0
    7.1371    0.0492    0.0000 O   0  0  0  0  0  0  0  0  0  0  0  0
    4.5390   -2.4508    0.0000 N   0  0  0  0  0  0  0  0  0  0  0  0
    7.9418    3.6328    0.0000 N   0  0  0  0  0  0  0  0  0  0  0  0
    3.6730   -3.9508    0.0000 C   0  0  0  0  0  0  0  0  0  0  0  0
    2.9819   -5.8343    0.0000 C   0  0  0  0  0  0  0  0  0  0  0  0
    2.8368   -5.3992    0.0000 C   0  0  0  0  0  0  0  0  0  0  0  0
    4.5092   -5.3992    0.0000 C   0  0  0  0  0  0  0  0  0  0  0  0
    4.5092   -4.4336    0.0000 C   0  0  0  0  0  0  0  0  0  0  0  0
    2.8368   -4.4336    0.0000 C   0  0  0  0  0  0  0  0  0  0  0  0
    2.9819   -4.7890    0.0000 C   0  0  0  0  0  0  0  0  0  0  0  0
    3.6730   -5.7019    0.0000 C   0  0  0  0  0  0  0  0  0  0  0  0
    3.8876   -6.3111    0.0000 C   0  0  0  0  0  0  0  0  0  0  0  0
    2.0000   -5.8819    0.0000 C   0  0  0  0  0  0  0  0  0  0  0  0
    3.6730   -2.9508    0.0000 C   0  0  1  0  0  0  0  0  0  0  0  0
    2.8070   -2.4508    0.0000 C   0  0  0  0  0  0  0  0  0  0  0  0
    4.5390   -1.4508    0.0000 C   0  0  0  0  0  0  0  0  0  0  0  0
    5.4050   -0.9508    0.0000 C   0  0  0  0  0  0  0  0  0  0  0  0
    6.2711    0.5492    0.0000 C   0  0  0  0  0  0  0  0  0  0  0  0
    6.2711    1.5492    0.0000 C   0  0  0  0  0  0  0  0  0  0  0  0
    7.1371    2.0492    0.0000 C   0  0  0  0  0  0  0  0  0  0  0  0
    7.1371    3.0492    0.0000 C   0  0  0  0  0  0  0  0  0  0  0  0
    6.6371    4.5790    0.0000 C   0  0  0  0  0  0  0  0  0  0  0  0
    7.6371    4.5790    0.0000 C   0  0  0  0  0  0  0  0  0  0  0  0
    6.1371    5.4450    0.0000 C   0  0  0  0  0  0  0  0  0  0  0  0
    8.1371    5.4450    0.0000 C   0  0  0  0  0  0  0  0  0  0  0  0
    6.6371    6.3110    0.0000 C   0  0  0  0  0  0  0  0  0  0  0  0
    7.6371    6.3111    0.0000 C   0  0  0  0  0  0  0  0  0  0  0  0
    5.1016   -5.5819    0.0000 H   0  0  0  0  0  0  0  0  0  0  0  0
    2.8912   -6.0168    0.0000 H   0  0  0  0  0  0  0  0  0  0  0  0
    2.8478   -6.4396    0.0000 H   0  0  0  0  0  0  0  0  0  0  0  0
    2.6383   -4.2729    0.0000 H   0  0  0  0  0  0  0  0  0  0  0  0
    2.3885   -4.9685    0.0000 H   0  0  0  0  0  0  0  0  0  0  0  0
    2.6247   -3.8510    0.0000 H   0  0  0  0  0  0  0  0  0  0  0  0
    2.2262   -4.5413    0.0000 H   0  0  0  0  0  0  0  0  0  0  0  0
    5.1198   -4.5413    0.0000 H   0  0  0  0  0  0  0  0  0  0  0  0
    4.7212   -3.8510    0.0000 H   0  0  0  0  0  0  0  0  0  0  0  0
    1.5188   -5.4910    0.0000 H   0  0  0  0  0  0  0  0  0  0  0  0
    1.8068   -6.4711    0.0000 H   0  0  0  0  0  0  0  0  0  0  0  0
    3.3030   -6.1994    0.0000 H   0  0  0  0  0  0  0  0  0  0  0  0
    4.0430   -6.1994    0.0000 H   0  0  0  0  0  0  0  0  0  0  0  0
    3.5782   -6.8483    0.0000 H   0  0  0  0  0  0  0  0  0  0  0  0
    4.4127   -6.6406    0.0000 H   0  0  0  0  0  0  0  0  0  0  0  0
    3.6730   -2.3308    0.0000 H   0  0  0  0  0  0  0  0  0  0  0  0
    3.1170   -1.9139    0.0000 H   0  0  0  0  0  0  0  0  0  0  0  0
    2.2700   -2.1408    0.0000 H   0  0  0  0  0  0  0  0  0  0  0  0
    2.4970   -2.9878    0.0000 H   0  0  0  0  0  0  0  0  0  0  0  0
    5.0760   -2.7608    0.0000 H   0  0  0  0  0  0  0  0  0  0  0  0
    5.6171   -1.5334    0.0000 H   0  0  0  0  0  0  0  0  0  0  0  0
    6.0156   -0.8432    0.0000 H   0  0  0  0  0  0  0  0  0  0  0  0
    6.0590    2.1318    0.0000 H   0  0  0  0  0  0  0  0  0  0  0  0
    5.6605    1.4415    0.0000 H   0  0  0  0  0  0  0  0  0  0  0  0
    7.3491    1.4666    0.0000 H   0  0  0  0  0  0  0  0  0  0  0  0
    7.7477    2.1568    0.0000 H   0  0  0  0  0  0  0  0  0  0  0  0
    5.5171    5.4450    0.0000 H   0  0  0  0  0  0  0  0  0  0  0  0
    8.7571    5.4450    0.0000 H   0  0  0  0  0  0  0  0  0  0  0  0
    6.3271    6.8480    0.0000 H   0  0  0  0  0  0  0  0  0  0  0  0
    7.9471    6.8480    0.0000 H   0  0  0  0  0  0  0  0  0  0  0  0
  1 24  1  0  0  0  0
  1 25  1  0  0  0  0
  2 19  2  0  0  0  0
  3 20  1  0  0  0  0
  3 21  1  0  0  0  0
  4 21  2  0  0  0  0
 17  5  1  1  0  0  0
  5 19  1  0  0  0  0
  5 50  1  0  0  0  0
  6 24  2  0  0  0  0
  6 26  1  0  0  0  0
  7 11  1  0  0  0  0
  7 12  1  0  0  0  0
  7 13  1  0  0  0  0
  7 17  1  0  0  0  0
  8 13  1  0  0  0  0
  8 15  1  0  0  0  0
  8 16  1  0  0  0  0
  8 33  1  0  0  0  0
  9 12  1  0  0  0  0
  9 14  1  0  0  0  0
  9 16  1  0  0  0  0
  9 32  1  0  0  0  0
 10 11  1  0  0  0  0
 10 14  1  0  0  0  0
 10 15  1  0  0  0  0
 10 31  1  0  0  0  0
 11 38  1  0  0  0  0
 11 39  1  0  0  0  0
 12 36  1  0  0  0  0
 12 37  1  0  0  0  0
 13 34  1  0  0  0  0
 13 35  1  0  0  0  0
 14 42  1  0  0  0  0
 14 43  1  0  0  0  0
 15 44  1  0  0  0  0
 15 45  1  0  0  0  0
 16 40  1  0  0  0  0
 16 41  1  0  0  0  0
 17 18  1  0  0  0  0
 17 46  1  0  0  0  0
 18 47  1  0  0  0  0
 18 48  1  0  0  0  0
 18 49  1  0  0  0  0
 19 20  1  0  0  0  0
 20 51  1  0  0  0  0
 20 52  1  0  0  0  0
 21 22  1  0  0  0  0
 22 23  1  0  0  0  0
 22 53  1  0  0  0  0
 22 54  1  0  0  0  0
 23 24  1  0  0  0  0
 23 55  1  0  0  0  0
 23 56  1  0  0  0  0
 25 26  1  0  0  0  0
 25 27  2  0  0  0  0
 26 28  2  0  0  0  0
 27 29  1  0  0  0  0
 27 57  1  0  0  0  0
 28 30  1  0  0  0  0
 28 58  1  0  0  0  0
 29 30  2  0  0  0  0
 29 59  1  0  0  0  0
 30 60  1  0  0  0  0
M  END
> <PUBCHEM_COMPOUND_CID>
7846946

> <PUBCHEM_COMPOUND_CANONICALIZED>
1

> <PUBCHEM_CACTVS_COMPLEXITY>
628

> <PUBCHEM_CACTVS_HBOND_ACCEPTOR>
5

> <PUBCHEM_CACTVS_HBOND_DONOR>
1

> <PUBCHEM_CACTVS_ROTATABLE_BOND>
8

> <PUBCHEM_CACTVS_SUBSKEYS>
AAADceB7MABAAAAAAAAAAAAAAAAAAWAAAAAwYMGDAAAAAFgB8AAAHgQQAAAADyjh1gYyybLIFAisASXyXAKD8KBhCjhImL14ZJgKILLgkZWHIAhklgD4yAc0gMAPAAAAAAAAAQAAAAQAAAACAAAAAAAAAA==

> <PUBCHEM_IUPAC_OPENEYE_NAME>
[2-[[(1R)-1-(1-adamantyl)ethyl]amino]-2-oxo-ethyl] 3-(1,3-benzothiazol-2-yl)propanoate

> <PUBCHEM_IUPAC_CAS_NAME>
3-(1,3-benzothiazol-2-yl)propanoic acid [2-[[(1R)-1-(1-adamantyl)ethyl]amino]-2-oxoethyl] ester

> <PUBCHEM_IUPAC_NAME>
[2-[[(1R)-1-(1-adamantyl)ethyl]amino]-2-oxoethyl] 3-(1,3-benzothiazol-2-yl)propanoate

> <PUBCHEM_IUPAC_SYSTEMATIC_NAME>
[2-[[(1R)-1-(1-adamantyl)ethyl]amino]-2-oxidanylidene-ethyl] 3-(1,3-benzothiazol-2-yl)propanoate

> <PUBCHEM_IUPAC_TRADITIONAL_NAME>
3-(1,3-benzothiazol-2-yl)propionic acid [2-[[(1R)-1-(1-adamantyl)ethyl]amino]-2-keto-ethyl] ester

> <PUBCHEM_IUPAC_INCHI>
InChI=1S/C24H30N2O3S/c1-15(24-11-16-8-17(12-24)10-18(9-16)13-24)25-21(27)14-29-23(28)7-6-22-26-19-4-2-3-5-20(19)30-22/h2-5,15-18H,6-14H2,1H3,(H,25,27)/t15-,16?,17?,18?,24?/m1/s1

> <PUBCHEM_IUPAC_INCHIKEY>
HGJKNQCERPTEPE-LJQCHSNASA-N

> <PUBCHEM_XLOGP3_AA>
5.2

> <PUBCHEM_EXACT_MASS>
426.197714

> <PUBCHEM_MOLECULAR_FORMULA>
C24H30N2O3S

> <PUBCHEM_MOLECULAR_WEIGHT>
426.5716

> <PUBCHEM_OPENEYE_CAN_SMILES>
CC(C12CC3CC(C1)CC(C3)C2)NC(=O)COC(=O)CCC4=NC5=CC=CC=C5S4

> <PUBCHEM_OPENEYE_ISO_SMILES>
C[C@H](C12CC3CC(C1)CC(C3)C2)NC(=O)COC(=O)CCC4=NC5=CC=CC=C5S4

> <PUBCHEM_CACTVS_TPSA>
96.5

> <PUBCHEM_MONOISOTOPIC_WEIGHT>
426.197714

> <PUBCHEM_TOTAL_CHARGE>
0

> <PUBCHEM_HEAVY_ATOM_COUNT>
30

> <PUBCHEM_ATOM_DEF_STEREO_COUNT>
1

> <PUBCHEM_ATOM_UDEF_STEREO_COUNT>
0

> <PUBCHEM_BOND_DEF_STEREO_COUNT>
0

> <PUBCHEM_BOND_UDEF_STEREO_COUNT>
0

> <PUBCHEM_ISOTOPIC_ATOM_COUNT>
0

> <PUBCHEM_COMPONENT_COUNT>
1

> <PUBCHEM_CACTVS_TAUTO_COUNT>
4

> <PUBCHEM_COORDINATE_TYPE>
1
5
255

> <PUBCHEM_BONDANNOTATIONS>
1  24  8
1  25  8
25  26  8
25  27  8
26  28  8
27  29  8
28  30  8
29  30  8
17  5  5
6  24  8
6  26  8

$$$$

