5102
  -OEChem-06261200313D

 51 55  0     1  0  0  0  0  0999 V2000
   -1.2055    1.1828   -0.1559 O   0  0  0  0  0  0  0  0  0  0  0  0
    2.1791    2.4785    0.4328 O   0  0  0  0  0  0  0  0  0  0  0  0
   -5.3058   -0.9722    0.3950 O   0  0  0  0  0  0  0  0  0  0  0  0
    0.8973   -2.2826    0.4312 O   0  0  0  0  0  0  0  0  0  0  0  0
    5.4789   -1.7362   -0.9075 O   0  0  0  0  0  0  0  0  0  0  0  0
    6.5186    0.6489    0.0646 O   0  0  0  0  0  0  0  0  0  0  0  0
    0.8933   -0.0086   -0.4502 C   0  0  1  0  0  0  0  0  0  0  0  0
    0.1623    1.1336    0.2603 C   0  0  1  0  0  0  0  0  0  0  0  0
   -1.8546   -0.0006    0.0807 C   0  0  0  0  0  0  0  0  0  0  0  0
    2.3879    0.1518   -0.3081 C   0  0  0  0  0  0  0  0  0  0  0  0
    0.2785   -1.2734    0.1215 C   0  0  0  0  0  0  0  0  0  0  0  0
    0.8462    2.4464   -0.0815 C   0  0  0  0  0  0  0  0  0  0  0  0
   -3.2364    0.0153    0.1392 C   0  0  0  0  0  0  0  0  0  0  0  0
   -1.1990   -1.2308    0.2483 C   0  0  0  0  0  0  0  0  0  0  0  0
   -4.1869    1.1325   -0.0685 C   0  0  0  0  0  0  0  0  0  0  0  0
   -5.4713    0.4689    0.4534 C   0  0  1  0  0  0  0  0  0  0  0  0
   -3.9458   -1.1527    0.3762 C   0  0  0  0  0  0  0  0  0  0  0  0
    2.9335    1.3738    0.1212 C   0  0  0  0  0  0  0  0  0  0  0  0
   -1.9253   -2.4101    0.4915 C   0  0  0  0  0  0  0  0  0  0  0  0
    3.2703   -0.8739   -0.6803 C   0  0  0  0  0  0  0  0  0  0  0  0
   -3.3198   -2.3727    0.5534 C   0  0  0  0  0  0  0  0  0  0  0  0
   -6.6830    0.8529   -0.3280 C   0  0  0  0  0  0  0  0  0  0  0  0
    4.3162    1.5279    0.2639 C   0  0  0  0  0  0  0  0  0  0  0  0
    4.6516   -0.7135   -0.5525 C   0  0  0  0  0  0  0  0  0  0  0  0
    5.1737    0.4828   -0.0696 C   0  0  0  0  0  0  0  0  0  0  0  0
   -6.9823    0.0178   -1.5374 C   0  0  0  0  0  0  0  0  0  0  0  0
   -7.4603    1.8855    0.0309 C   0  0  0  0  0  0  0  0  0  0  0  0
    5.8184   -2.6774    0.1088 C   0  0  0  0  0  0  0  0  0  0  0  0
    6.9701    1.9054    0.5666 C   0  0  0  0  0  0  0  0  0  0  0  0
    0.6610   -0.0002   -1.5250 H   0  0  0  0  0  0  0  0  0  0  0  0
    0.2001    1.0071    1.3543 H   0  0  0  0  0  0  0  0  0  0  0  0
    0.8590    2.6342   -1.1632 H   0  0  0  0  0  0  0  0  0  0  0  0
    0.2959    3.2822    0.3655 H   0  0  0  0  0  0  0  0  0  0  0  0
   -3.9345    2.0245    0.5126 H   0  0  0  0  0  0  0  0  0  0  0  0
   -4.2389    1.3893   -1.1321 H   0  0  0  0  0  0  0  0  0  0  0  0
   -5.6100    0.7185    1.5156 H   0  0  0  0  0  0  0  0  0  0  0  0
   -1.4194   -3.3638    0.6169 H   0  0  0  0  0  0  0  0  0  0  0  0
    2.8855   -1.8091   -1.0802 H   0  0  0  0  0  0  0  0  0  0  0  0
   -3.8899   -3.2779    0.7314 H   0  0  0  0  0  0  0  0  0  0  0  0
    4.6600    2.4925    0.6232 H   0  0  0  0  0  0  0  0  0  0  0  0
   -6.1140   -0.0277   -2.2028 H   0  0  0  0  0  0  0  0  0  0  0  0
   -7.2610   -1.0015   -1.2511 H   0  0  0  0  0  0  0  0  0  0  0  0
   -7.8141    0.4306   -2.1191 H   0  0  0  0  0  0  0  0  0  0  0  0
   -8.3400    2.1571   -0.5427 H   0  0  0  0  0  0  0  0  0  0  0  0
   -7.2319    2.4833    0.9070 H   0  0  0  0  0  0  0  0  0  0  0  0
    6.4861   -3.4259   -0.3265 H   0  0  0  0  0  0  0  0  0  0  0  0
    4.9204   -3.1822    0.4790 H   0  0  0  0  0  0  0  0  0  0  0  0
    6.3387   -2.1823    0.9347 H   0  0  0  0  0  0  0  0  0  0  0  0
    6.6105    2.0865    1.5854 H   0  0  0  0  0  0  0  0  0  0  0  0
    6.7215    2.7252   -0.1159 H   0  0  0  0  0  0  0  0  0  0  0  0
    8.0628    1.8570    0.6197 H   0  0  0  0  0  0  0  0  0  0  0  0
  1  8  1  0  0  0  0
  1  9  1  0  0  0  0
  2 12  1  0  0  0  0
  2 18  1  0  0  0  0
  3 16  1  0  0  0  0
  3 17  1  0  0  0  0
  4 11  2  0  0  0  0
  5 24  1  0  0  0  0
  5 28  1  0  0  0  0
  6 25  1  0  0  0  0
  6 29  1  0  0  0  0
  7  8  1  0  0  0  0
  7 10  1  0  0  0  0
  7 11  1  0  0  0  0
  7 30  1  0  0  0  0
  8 12  1  0  0  0  0
  8 31  1  0  0  0  0
  9 13  1  0  0  0  0
  9 14  2  0  0  0  0
 10 18  1  0  0  0  0
 10 20  2  0  0  0  0
 11 14  1  0  0  0  0
 12 32  1  0  0  0  0
 12 33  1  0  0  0  0
 13 15  1  0  0  0  0
 13 17  2  0  0  0  0
 14 19  1  0  0  0  0
 15 16  1  0  0  0  0
 15 34  1  0  0  0  0
 15 35  1  0  0  0  0
 16 22  1  0  0  0  0
 16 36  1  0  0  0  0
 17 21  1  0  0  0  0
 18 23  2  0  0  0  0
 19 21  2  0  0  0  0
 19 37  1  0  0  0  0
 20 24  1  0  0  0  0
 20 38  1  0  0  0  0
 21 39  1  0  0  0  0
 22 26  1  0  0  0  0
 22 27  2  0  0  0  0
 23 25  1  0  0  0  0
 23 40  1  0  0  0  0
 24 25  2  0  0  0  0
 26 41  1  0  0  0  0
 26 42  1  0  0  0  0
 26 43  1  0  0  0  0
 27 44  1  0  0  0  0
 27 45  1  0  0  0  0
 28 46  1  0  0  0  0
 28 47  1  0  0  0  0
 28 48  1  0  0  0  0
 29 49  1  0  0  0  0
 29 50  1  0  0  0  0
 29 51  1  0  0  0  0
M  END
> <PUBCHEM_COMPOUND_CID>
5102

> <PUBCHEM_CONFORMER_RMSD>
0.8

> <PUBCHEM_CONFORMER_DIVERSEORDER>
7
10
3
5
12
2
8
9
6
11
4
13
1

> <PUBCHEM_MMFF94_PARTIAL_CHARGES>
35
1 -0.36
10 -0.14
11 0.42
12 0.28
13 -0.14
14 0.09
15 0.14
16 0.42
17 0.08
18 0.08
19 -0.15
2 -0.36
20 -0.15
21 -0.15
22 -0.28
23 -0.15
24 0.08
25 0.08
26 0.14
27 -0.3
28 0.28
29 0.28
3 -0.36
37 0.15
38 0.15
39 0.15
4 -0.57
40 0.15
44 0.15
45 0.15
5 -0.36
6 -0.36
7 0.2
8 0.28
9 0.08

> <PUBCHEM_EFFECTIVE_ROTOR_COUNT>
4.2

> <PUBCHEM_PHARMACOPHORE_FEATURES>
11
1 1 acceptor
1 2 acceptor
1 3 acceptor
1 4 acceptor
1 5 acceptor
1 6 acceptor
5 3 13 15 16 17 rings
6 1 7 8 9 11 14 rings
6 10 18 20 23 24 25 rings
6 2 7 8 10 12 18 rings
6 9 13 14 17 19 21 rings

> <PUBCHEM_HEAVY_ATOM_COUNT>
29

> <PUBCHEM_ATOM_DEF_STEREO_COUNT>
0

> <PUBCHEM_ATOM_UDEF_STEREO_COUNT>
3

> <PUBCHEM_BOND_DEF_STEREO_COUNT>
0

> <PUBCHEM_BOND_UDEF_STEREO_COUNT>
0

> <PUBCHEM_ISOTOPIC_ATOM_COUNT>
0

> <PUBCHEM_COMPONENT_COUNT>
1

> <PUBCHEM_CACTVS_TAUTO_COUNT>
2

> <PUBCHEM_CONFORMER_ID>
000013EE00000007

> <PUBCHEM_MMFF94_ENERGY>
112.8722

> <PUBCHEM_FEATURE_SELFOVERLAP>
56.011

> <PUBCHEM_SHAPE_FINGERPRINT>
10554248 39 18271812302064284830
10835480 77 18337112267863708608
11089746 13 18259706692549864189
11315181 36 17748822982659170905
11578080 2 16662073321705798042
117089 54 17610607989207472310
11719270 70 17895195536399358806
11796584 16 17775002354331888458
12236239 1 17749108907132212213
12516196 113 18186800266491872944
12838862 33 18339942449242464416
13402501 40 18411417310606982692
13533116 47 18040435525276208226
14117953 113 18115020935217625358
14725015 67 18267868475038318906
14856354 85 15051726478963216835
15131766 46 15359704045479658066
15142383 8 17346325894739567092
15183329 4 18336260227623692842
15196674 1 18410852122954630970
15461852 350 17530965726950940317
15927050 60 18273215301136877523
16087824 20 18339921614657272621
1813 80 17418373571977440844
18608769 82 18341888547297700131
18681886 176 17895204268605337131
20028762 73 18040717025669821438
20511986 3 17749960955655817654
21033648 144 18272940458005266047
21033648 29 18115318765191714136
21130935 74 18335135397269871227
21279426 13 18339922713751337670
21298829 104 18408320017055151497
21792934 111 18335994163733542976
21859007 373 17988096572423110741
2215653 11 18334573542432182006
23559900 14 18337113376112697929
2838139 119 18408324411096325949
3004659 81 18273208725667624670
3103668 31 17985549089834011725
335352 9 18411697707694686303
350125 39 18413670227476499477
3680242 22 18343018930374784042
4073 2 18200590290093696474
4093350 32 17531243988991257510
5104073 3 18409157801501373970
5385378 56 18129660928340907955
6009941 240 17988641865586110266
6138700 20 18339920527671343799
6328613 192 18200588099138545269

> <PUBCHEM_SHAPE_MULTIPOLES>
561.59
18.74
2.71
0.82
5.97
0.61
-0.14
-4.54
-1.87
-1.68
0.41
0.41
0.08
1.09

> <PUBCHEM_SHAPE_SELFOVERLAP>
1254.419

> <PUBCHEM_SHAPE_VOLUME>
299.2

> <PUBCHEM_COORDINATE_TYPE>
2
5
10

$$$$

