5148
  -OEChem-06261200323D

 15 15  0     0  0  0  0  0  0999 V2000
    0.3113   -2.1564   -0.0006 O   0  0  0  0  0  0  0  0  0  0  0  0
    2.4069   -0.7928    0.0005 O   0  5  0  0  0  0  0  0  0  0  0  0
    2.3061    1.4629   -0.0008 O   0  0  0  0  0  0  0  0  0  0  0  0
    0.2669    0.2417    0.0006 C   0  0  0  0  0  0  0  0  0  0  0  0
   -0.3909   -0.9882    0.0004 C   0  0  0  0  0  0  0  0  0  0  0  0
   -0.4694    1.4265    0.0004 C   0  0  0  0  0  0  0  0  0  0  0  0
   -1.7850   -1.0336   -0.0001 C   0  0  0  0  0  0  0  0  0  0  0  0
   -1.8635    1.3813    0.0000 C   0  0  0  0  0  0  0  0  0  0  0  0
   -2.5213    0.1512   -0.0003 C   0  0  0  0  0  0  0  0  0  0  0  0
    1.7390    0.3075   -0.0001 C   0  0  0  0  0  0  0  0  0  0  0  0
    0.0124    2.4004    0.0004 H   0  0  0  0  0  0  0  0  0  0  0  0
   -2.3109   -1.9846   -0.0005 H   0  0  0  0  0  0  0  0  0  0  0  0
   -2.4372    2.3035   -0.0002 H   0  0  0  0  0  0  0  0  0  0  0  0
   -3.6068    0.1161   -0.0008 H   0  0  0  0  0  0  0  0  0  0  0  0
   -0.3130   -2.9023   -0.0009 H   0  0  0  0  0  0  0  0  0  0  0  0
  1  5  1  0  0  0  0
  1 15  1  0  0  0  0
  2 10  1  0  0  0  0
  3 10  2  0  0  0  0
  4  5  1  0  0  0  0
  4  6  2  0  0  0  0
  4 10  1  0  0  0  0
  5  7  2  0  0  0  0
  6  8  1  0  0  0  0
  6 11  1  0  0  0  0
  7  9  1  0  0  0  0
  7 12  1  0  0  0  0
  8  9  2  0  0  0  0
  8 13  1  0  0  0  0
  9 14  1  0  0  0  0
M  CHG  1   2  -1
M  END
> <PUBCHEM_COMPOUND_CID>
5148

> <PUBCHEM_CONFORMER_RMSD>
0.4

> <PUBCHEM_CONFORMER_DIVERSEORDER>
1

> <PUBCHEM_MMFF94_PARTIAL_CHARGES>
15
1 -0.53
10 0.98
11 0.15
12 0.15
13 0.15
14 0.15
15 0.45
2 -0.9
3 -0.9
4 -0.18
5 0.08
6 -0.15
7 -0.15
8 -0.15
9 -0.15

> <PUBCHEM_EFFECTIVE_ROTOR_COUNT>
1

> <PUBCHEM_PHARMACOPHORE_FEATURES>
5
1 1 donor
1 2 acceptor
1 3 acceptor
3 2 3 10 anion
6 4 5 6 7 8 9 rings

> <PUBCHEM_HEAVY_ATOM_COUNT>
10

> <PUBCHEM_ATOM_DEF_STEREO_COUNT>
0

> <PUBCHEM_ATOM_UDEF_STEREO_COUNT>
0

> <PUBCHEM_BOND_DEF_STEREO_COUNT>
0

> <PUBCHEM_BOND_UDEF_STEREO_COUNT>
0

> <PUBCHEM_ISOTOPIC_ATOM_COUNT>
0

> <PUBCHEM_COMPONENT_COUNT>
1

> <PUBCHEM_CACTVS_TAUTO_COUNT>
4

> <PUBCHEM_CONFORMER_ID>
0000141C00000001

> <PUBCHEM_MMFF94_ENERGY>
25.8943

> <PUBCHEM_FEATURE_SELFOVERLAP>
25.433

> <PUBCHEM_SHAPE_FINGERPRINT>
12897270 3 18411420639370206365
14325111 11 18410855464497254945
16945 1 18266740366710391495
18185500 45 17835520423116630518
20871998 184 17972310711941552982
21040471 1 18410856521085401632
23552423 10 18343581841314698998
241688 4 17040917040609132499
2748010 2 18411135805581253757
369184 2 18335422344029050801
5084963 1 18187085082747099776

> <PUBCHEM_SHAPE_MULTIPOLES>
188.19
3.24
1.84
0.59
0.6
0.32
0
-0.52
0
0.05
0
-0.05
-0.02
0

> <PUBCHEM_SHAPE_SELFOVERLAP>
398.892

> <PUBCHEM_SHAPE_VOLUME>
104.8

> <PUBCHEM_COORDINATE_TYPE>
2
5
10

$$$$

