17395582
  -OEChem-06241222513D

 48 50  0     1  0  0  0  0  0999 V2000
   -0.8208   -2.1055    1.7806 S   0  0  0  0  0  0  0  0  0  0  0  0
    2.2764   -0.9591    2.6474 O   0  0  0  0  0  0  0  0  0  0  0  0
    2.1390   -1.3076    0.3536 N   0  0  0  0  0  0  0  0  0  0  0  0
   -1.9708   -1.3953   -0.6374 N   0  0  0  0  0  0  0  0  0  0  0  0
   -0.6070   -3.1003   -0.7811 N   0  0  0  0  0  0  0  0  0  0  0  0
   -1.1142   -2.8411   -2.0386 N   0  0  0  0  0  0  0  0  0  0  0  0
    3.0444   -0.2563   -0.0534 C   0  0  1  0  0  0  0  0  0  0  0  0
    3.7768   -0.6231   -1.3554 C   0  0  0  0  0  0  0  0  0  0  0  0
    2.3112    1.0642   -0.1755 C   0  0  0  0  0  0  0  0  0  0  0  0
    4.5212   -1.9488   -1.2537 C   0  0  0  0  0  0  0  0  0  0  0  0
    1.3121    1.2206   -1.1361 C   0  0  0  0  0  0  0  0  0  0  0  0
    2.6347    2.1229    0.6732 C   0  0  0  0  0  0  0  0  0  0  0  0
    1.8306   -1.5706    1.6779 C   0  0  0  0  0  0  0  0  0  0  0  0
    0.9598    3.4943   -0.3994 C   0  0  0  0  0  0  0  0  0  0  0  0
    0.6363    2.4357   -1.2480 C   0  0  0  0  0  0  0  0  0  0  0  0
    1.9590    3.3379    0.5612 C   0  0  0  0  0  0  0  0  0  0  0  0
    0.8757   -2.7298    1.8407 C   0  0  0  0  0  0  0  0  0  0  0  0
    0.2369    4.7932   -0.5191 C   0  0  0  0  0  0  0  0  0  0  0  0
   -1.1320   -2.2233    0.0447 C   0  0  0  0  0  0  0  0  0  0  0  0
   -2.7297   -0.3307   -0.1570 C   0  0  0  0  0  0  0  0  0  0  0  0
   -1.9294   -1.8162   -1.9320 C   0  0  0  0  0  0  0  0  0  0  0  0
   -4.1184   -0.3501   -0.2865 C   0  0  0  0  0  0  0  0  0  0  0  0
   -2.1013    0.7539    0.4545 C   0  0  0  0  0  0  0  0  0  0  0  0
   -4.8787    0.7155    0.1955 C   0  0  0  0  0  0  0  0  0  0  0  0
   -2.8615    1.8195    0.9366 C   0  0  0  0  0  0  0  0  0  0  0  0
   -4.2503    1.8002    0.8070 C   0  0  0  0  0  0  0  0  0  0  0  0
    3.8027   -0.1642    0.7358 H   0  0  0  0  0  0  0  0  0  0  0  0
    4.4905    0.1701   -1.6114 H   0  0  0  0  0  0  0  0  0  0  0  0
    3.0755   -0.6979   -2.1953 H   0  0  0  0  0  0  0  0  0  0  0  0
    1.6620   -1.8315   -0.3746 H   0  0  0  0  0  0  0  0  0  0  0  0
    3.8341   -2.7891   -1.1140 H   0  0  0  0  0  0  0  0  0  0  0  0
    5.0859   -2.1324   -2.1735 H   0  0  0  0  0  0  0  0  0  0  0  0
    5.2296   -1.9375   -0.4194 H   0  0  0  0  0  0  0  0  0  0  0  0
    1.0369    0.4051   -1.7993 H   0  0  0  0  0  0  0  0  0  0  0  0
    3.4102    2.0164    1.4270 H   0  0  0  0  0  0  0  0  0  0  0  0
   -0.1418    2.5448   -1.9989 H   0  0  0  0  0  0  0  0  0  0  0  0
    2.2212    4.1556    1.2273 H   0  0  0  0  0  0  0  0  0  0  0  0
    1.0482   -3.1727    2.8273 H   0  0  0  0  0  0  0  0  0  0  0  0
    1.0699   -3.5125    1.1014 H   0  0  0  0  0  0  0  0  0  0  0  0
    0.7279    5.4297   -1.2618 H   0  0  0  0  0  0  0  0  0  0  0  0
   -0.8042    4.6367   -0.8219 H   0  0  0  0  0  0  0  0  0  0  0  0
    0.2150    5.3251    0.4381 H   0  0  0  0  0  0  0  0  0  0  0  0
   -2.4880   -1.3591   -2.7373 H   0  0  0  0  0  0  0  0  0  0  0  0
   -4.6262   -1.1893   -0.7557 H   0  0  0  0  0  0  0  0  0  0  0  0
   -1.0232    0.7876    0.5735 H   0  0  0  0  0  0  0  0  0  0  0  0
   -5.9601    0.7001    0.0959 H   0  0  0  0  0  0  0  0  0  0  0  0
   -2.3719    2.6636    1.4136 H   0  0  0  0  0  0  0  0  0  0  0  0
   -4.8421    2.6297    1.1828 H   0  0  0  0  0  0  0  0  0  0  0  0
  1 17  1  0  0  0  0
  1 19  1  0  0  0  0
  2 13  2  0  0  0  0
  3  7  1  0  0  0  0
  3 13  1  0  0  0  0
  3 30  1  0  0  0  0
  4 19  1  0  0  0  0
  4 20  1  0  0  0  0
  4 21  1  0  0  0  0
  5  6  1  0  0  0  0
  5 19  2  0  0  0  0
  6 21  2  0  0  0  0
  7  8  1  0  0  0  0
  7  9  1  0  0  0  0
  7 27  1  0  0  0  0
  8 10  1  0  0  0  0
  8 28  1  0  0  0  0
  8 29  1  0  0  0  0
  9 11  2  0  0  0  0
  9 12  1  0  0  0  0
 10 31  1  0  0  0  0
 10 32  1  0  0  0  0
 10 33  1  0  0  0  0
 11 15  1  0  0  0  0
 11 34  1  0  0  0  0
 12 16  2  0  0  0  0
 12 35  1  0  0  0  0
 13 17  1  0  0  0  0
 14 15  2  0  0  0  0
 14 16  1  0  0  0  0
 14 18  1  0  0  0  0
 15 36  1  0  0  0  0
 16 37  1  0  0  0  0
 17 38  1  0  0  0  0
 17 39  1  0  0  0  0
 18 40  1  0  0  0  0
 18 41  1  0  0  0  0
 18 42  1  0  0  0  0
 20 22  2  0  0  0  0
 20 23  1  0  0  0  0
 21 43  1  0  0  0  0
 22 24  1  0  0  0  0
 22 44  1  0  0  0  0
 23 25  2  0  0  0  0
 23 45  1  0  0  0  0
 24 26  2  0  0  0  0
 24 46  1  0  0  0  0
 25 26  1  0  0  0  0
 25 47  1  0  0  0  0
 26 48  1  0  0  0  0
M  END
> <PUBCHEM_COMPOUND_CID>
17395582

> <PUBCHEM_CONFORMER_RMSD>
1.2

> <PUBCHEM_CONFORMER_DIVERSEORDER>
4
102
50
46
52
55
8
71
3
27
47
23
76
61
103
115
49
110
24
32
6
22
94
37
29
43
18
75
120
121
65
85
108
19
70
69
111
109
5
95
90
14
112
7
88
91
57
1
83
17
10
16
48
77
119
11
87
41
67
51
100
44
66
13
21
58
118
20
82
34
81
25
104
15
106
26
39
40
2
101
59
31
72
42
80
105
114
68
38
92
12
116
117
89
60
28
53
113
62
35
56
73
63
45
99
79
74
9
33
86
107
84
97
54
36
93
78
30
96
64
98

> <PUBCHEM_MMFF94_PARTIAL_CHARGES>
35
1 -0.29
11 -0.15
12 -0.15
13 0.57
14 -0.14
15 -0.15
16 -0.15
17 0.29
18 0.14
19 0.24
2 -0.57
20 -0.02
21 0.04
22 -0.15
23 -0.15
24 -0.15
25 -0.15
26 -0.15
3 -0.73
30 0.37
34 0.15
35 0.15
36 0.15
37 0.15
4 0.33
43 0.15
44 0.15
45 0.15
46 0.15
47 0.15
48 0.15
5 -0.34
6 -0.34
7 0.44
9 -0.14

> <PUBCHEM_EFFECTIVE_ROTOR_COUNT>
8

> <PUBCHEM_PHARMACOPHORE_FEATURES>
8
1 10 hydrophobe
1 2 acceptor
1 3 donor
3 4 5 19 cation
3 4 6 21 cation
5 4 5 6 19 21 rings
6 20 22 23 24 25 26 rings
6 9 11 12 14 15 16 rings

> <PUBCHEM_HEAVY_ATOM_COUNT>
26

> <PUBCHEM_ATOM_DEF_STEREO_COUNT>
0

> <PUBCHEM_ATOM_UDEF_STEREO_COUNT>
1

> <PUBCHEM_BOND_DEF_STEREO_COUNT>
0

> <PUBCHEM_BOND_UDEF_STEREO_COUNT>
0

> <PUBCHEM_ISOTOPIC_ATOM_COUNT>
0

> <PUBCHEM_COMPONENT_COUNT>
1

> <PUBCHEM_CACTVS_TAUTO_COUNT>
2

> <PUBCHEM_CONFORMER_ID>
01096F7E00000004

> <PUBCHEM_MMFF94_ENERGY>
69.1241

> <PUBCHEM_FEATURE_SELFOVERLAP>
43.097

> <PUBCHEM_SHAPE_FINGERPRINT>
10165383 225 16916772003256651302
104564 63 17910107246260120600
11578080 2 16734112210823749762
12107698 1 18193552272777117046
12156800 1 14817928636276149913
12553582 1 18269843171281082032
12788726 201 18196920283900497878
13122387 1 18267873954640888281
13583140 156 18059858364111224555
13965767 371 17829351394317952331
14178342 30 18048890597294292144
14713325 29 15832217883068204796
14955137 171 18266155388070279627
17492 89 18190177888908557031
17980427 23 17903390042216358592
19319366 153 17988632017690511978
20465049 17 18341596149163971211
20764821 26 14590965805720610245
20905425 154 17764019564356988445
21285901 2 17825371145219646550
21315764 371 10735866300828393127
23558518 356 17909270178513949856
23559900 14 17967251974943143700
2637199 183 18341039817549756002
35225 105 17102020110058197040
4409770 3 15451977706656107567
445580 8 18194687196562677121
484985 159 14396213352551255859
5895379 119 18188221900714101082
7226269 152 18202001037048601770
7832392 63 18409167684305361438
9981440 41 17471017977829870104

> <PUBCHEM_SHAPE_MULTIPOLES>
513.12
7.16
5.08
1.89
3.39
4.08
-0.32
0.09
0.64
-1.52
0.3
-0.65
-1.59
-0.81

> <PUBCHEM_SHAPE_SELFOVERLAP>
1076.449

> <PUBCHEM_SHAPE_VOLUME>
291.8

> <PUBCHEM_COORDINATE_TYPE>
2
5
10

$$$$

