582716
  -OEChem-06241222432D

 63 67  0     1  0  0  0  0  0999 V2000
    4.6318    0.6241    0.0000 O   0  0  0  0  0  0  0  0  0  0  0  0
    6.3246   -2.5593    0.0000 O   0  0  0  0  0  0  0  0  0  0  0  0
    6.2781    0.0861    0.0000 N   0  0  0  0  0  0  0  0  0  0  0  0
    4.6783   -3.6307    0.0000 N   0  0  0  0  0  0  0  0  0  0  0  0
    7.6138   -1.4026    0.0000 N   0  0  0  0  0  0  0  0  0  0  0  0
    5.9674   -0.8645    0.0000 C   0  0  3  0  0  0  0  0  0  0  0  0
    4.9889   -1.0707    0.0000 C   0  0  0  0  0  0  0  0  0  0  0  0
    4.6783   -2.0212    0.0000 C   0  0  0  0  0  0  0  0  0  0  0  0
    3.7320   -2.3259    0.0000 C   0  0  0  0  0  0  0  0  0  0  0  0
    5.9209    1.7809    0.0000 C   0  0  0  0  0  0  0  0  0  0  0  0
    3.7320   -3.3259    0.0000 C   0  0  0  0  0  0  0  0  0  0  0  0
    5.6103    0.8304    0.0000 C   0  0  0  0  0  0  0  0  0  0  0  0
    5.2619   -2.8259    0.0000 C   0  0  0  0  0  0  0  0  0  0  0  0
    6.6353   -1.6088    0.0000 C   0  0  0  0  0  0  0  0  0  0  0  0
    5.2531    2.5252    0.0000 C   0  0  0  0  0  0  0  0  0  0  0  0
    6.8994    1.9871    0.0000 C   0  0  0  0  0  0  0  0  0  0  0  0
    2.8660   -1.8259    0.0000 C   0  0  0  0  0  0  0  0  0  0  0  0
    2.8660   -3.8259    0.0000 C   0  0  0  0  0  0  0  0  0  0  0  0
    2.0000   -2.3259    0.0000 C   0  0  0  0  0  0  0  0  0  0  0  0
    2.0000   -3.3259    0.0000 C   0  0  0  0  0  0  0  0  0  0  0  0
    5.5637    3.4757    0.0000 C   0  0  0  0  0  0  0  0  0  0  0  0
    7.2101    2.9376    0.0000 C   0  0  0  0  0  0  0  0  0  0  0  0
    4.2746    2.3190    0.0000 C   0  0  0  0  0  0  0  0  0  0  0  0
    7.5673    1.2428    0.0000 C   0  0  0  0  0  0  0  0  0  0  0  0
    8.2816   -2.1468    0.0000 C   0  0  0  0  0  0  0  0  0  0  0  0
    8.1886    3.1438    0.0000 C   0  0  0  0  0  0  0  0  0  0  0  0
    4.8959    4.2200    0.0000 C   0  0  0  0  0  0  0  0  0  0  0  0
    8.5458    1.4490    0.0000 C   0  0  0  0  0  0  0  0  0  0  0  0
    3.6067    3.0633    0.0000 C   0  0  0  0  0  0  0  0  0  0  0  0
    8.8564    2.3995    0.0000 C   0  0  0  0  0  0  0  0  0  0  0  0
    3.9174    4.0138    0.0000 C   0  0  0  0  0  0  0  0  0  0  0  0
    7.9710   -3.0974    0.0000 C   0  0  0  0  0  0  0  0  0  0  0  0
    9.2601   -1.9406    0.0000 C   0  0  0  0  0  0  0  0  0  0  0  0
    8.6388   -3.8417    0.0000 C   0  0  0  0  0  0  0  0  0  0  0  0
    9.9280   -2.6849    0.0000 C   0  0  0  0  0  0  0  0  0  0  0  0
    9.6173   -3.6355    0.0000 C   0  0  0  0  0  0  0  0  0  0  0  0
    5.5534   -0.4030    0.0000 H   0  0  0  0  0  0  0  0  0  0  0  0
    4.9684   -0.4510    0.0000 H   0  0  0  0  0  0  0  0  0  0  0  0
    4.3751   -0.9833    0.0000 H   0  0  0  0  0  0  0  0  0  0  0  0
    6.3350    1.3194    0.0000 H   0  0  0  0  0  0  0  0  0  0  0  0
    6.8848    0.2139    0.0000 H   0  0  0  0  0  0  0  0  0  0  0  0
    5.8819   -2.8259    0.0000 H   0  0  0  0  0  0  0  0  0  0  0  0
    4.8709   -4.2200    0.0000 H   0  0  0  0  0  0  0  0  0  0  0  0
    2.8660   -1.2059    0.0000 H   0  0  0  0  0  0  0  0  0  0  0  0
    2.8660   -4.4459    0.0000 H   0  0  0  0  0  0  0  0  0  0  0  0
    7.8064   -0.8132    0.0000 H   0  0  0  0  0  0  0  0  0  0  0  0
    1.4631   -2.0159    0.0000 H   0  0  0  0  0  0  0  0  0  0  0  0
    1.4631   -3.6359    0.0000 H   0  0  0  0  0  0  0  0  0  0  0  0
    6.7960    3.3991    0.0000 H   0  0  0  0  0  0  0  0  0  0  0  0
    6.1704    3.6036    0.0000 H   0  0  0  0  0  0  0  0  0  0  0  0
    7.3747    0.6535    0.0000 H   0  0  0  0  0  0  0  0  0  0  0  0
    4.0820    1.7296    0.0000 H   0  0  0  0  0  0  0  0  0  0  0  0
    8.3812    3.7332    0.0000 H   0  0  0  0  0  0  0  0  0  0  0  0
    5.0885    4.8093    0.0000 H   0  0  0  0  0  0  0  0  0  0  0  0
    8.9598    0.9875    0.0000 H   0  0  0  0  0  0  0  0  0  0  0  0
    3.0000    2.9354    0.0000 H   0  0  0  0  0  0  0  0  0  0  0  0
    3.5033    4.4752    0.0000 H   0  0  0  0  0  0  0  0  0  0  0  0
    9.4631    2.5274    0.0000 H   0  0  0  0  0  0  0  0  0  0  0  0
    7.3643   -3.2252    0.0000 H   0  0  0  0  0  0  0  0  0  0  0  0
    9.4528   -1.3513    0.0000 H   0  0  0  0  0  0  0  0  0  0  0  0
    8.4462   -4.4310    0.0000 H   0  0  0  0  0  0  0  0  0  0  0  0
   10.5347   -2.5571    0.0000 H   0  0  0  0  0  0  0  0  0  0  0  0
   10.0314   -4.0969    0.0000 H   0  0  0  0  0  0  0  0  0  0  0  0
  1 12  2  0  0  0  0
  2 14  2  0  0  0  0
  3  6  1  0  0  0  0
  3 12  1  0  0  0  0
  3 41  1  0  0  0  0
  4 11  1  0  0  0  0
  4 13  1  0  0  0  0
  4 43  1  0  0  0  0
  5 14  1  0  0  0  0
  5 25  1  0  0  0  0
  5 46  1  0  0  0  0
  6  7  1  0  0  0  0
  6 14  1  0  0  0  0
  6 37  1  0  0  0  0
  7  8  1  0  0  0  0
  7 38  1  0  0  0  0
  7 39  1  0  0  0  0
  8  9  1  0  0  0  0
  8 13  2  0  0  0  0
  9 11  1  0  0  0  0
  9 17  2  0  0  0  0
 10 12  1  0  0  0  0
 10 15  1  0  0  0  0
 10 16  1  0  0  0  0
 10 40  1  0  0  0  0
 11 18  2  0  0  0  0
 13 42  1  0  0  0  0
 15 21  2  0  0  0  0
 15 23  1  0  0  0  0
 16 22  2  0  0  0  0
 16 24  1  0  0  0  0
 17 19  1  0  0  0  0
 17 44  1  0  0  0  0
 18 20  1  0  0  0  0
 18 45  1  0  0  0  0
 19 20  2  0  0  0  0
 19 47  1  0  0  0  0
 20 48  1  0  0  0  0
 21 27  1  0  0  0  0
 21 50  1  0  0  0  0
 22 26  1  0  0  0  0
 22 49  1  0  0  0  0
 23 29  2  0  0  0  0
 23 52  1  0  0  0  0
 24 28  2  0  0  0  0
 24 51  1  0  0  0  0
 25 32  2  0  0  0  0
 25 33  1  0  0  0  0
 26 30  2  0  0  0  0
 26 53  1  0  0  0  0
 27 31  2  0  0  0  0
 27 54  1  0  0  0  0
 28 30  1  0  0  0  0
 28 55  1  0  0  0  0
 29 31  1  0  0  0  0
 29 56  1  0  0  0  0
 30 58  1  0  0  0  0
 31 57  1  0  0  0  0
 32 34  1  0  0  0  0
 32 59  1  0  0  0  0
 33 35  2  0  0  0  0
 33 60  1  0  0  0  0
 34 36  2  0  0  0  0
 34 61  1  0  0  0  0
 35 36  1  0  0  0  0
 35 62  1  0  0  0  0
 36 63  1  0  0  0  0
M  END
> <PUBCHEM_COMPOUND_CID>
582716

> <PUBCHEM_COMPOUND_CANONICALIZED>
1

> <PUBCHEM_CACTVS_COMPLEXITY>
691

> <PUBCHEM_CACTVS_HBOND_ACCEPTOR>
2

> <PUBCHEM_CACTVS_HBOND_DONOR>
3

> <PUBCHEM_CACTVS_ROTATABLE_BOND>
8

> <PUBCHEM_CACTVS_SUBSKEYS>
AAADceB7MAAAAAAAAAAAAAAAAAAAAWAAAAAwYMGAAAAAAFgB9AAAHgAQAAAADSjBngQ8wPLJkACoAzV3VACCgCAxAiAI2aG4ZJgIYPLAlbGUIAhglgDIyAcYicCOgAAAAAACAAAAAAAAAAQAAAAAAAAAAA==

> <PUBCHEM_IUPAC_OPENEYE_NAME>
2-[(2,2-diphenylacetyl)amino]-3-(1H-indol-3-yl)-N-phenyl-propanamide

> <PUBCHEM_IUPAC_CAS_NAME>
3-(1H-indol-3-yl)-2-[(1-oxo-2,2-diphenylethyl)amino]-N-phenylpropanamide

> <PUBCHEM_IUPAC_NAME>
2-[(2,2-diphenylacetyl)amino]-3-(1H-indol-3-yl)-N-phenylpropanamide

> <PUBCHEM_IUPAC_SYSTEMATIC_NAME>
2-(2,2-diphenylethanoylamino)-3-(1H-indol-3-yl)-N-phenyl-propanamide

> <PUBCHEM_IUPAC_TRADITIONAL_NAME>
2-[(2,2-diphenylacetyl)amino]-3-(1H-indol-3-yl)-N-phenyl-propionamide

> <PUBCHEM_IUPAC_INCHI>
InChI=1S/C31H27N3O2/c35-30(33-25-16-8-3-9-17-25)28(20-24-21-32-27-19-11-10-18-26(24)27)34-31(36)29(22-12-4-1-5-13-22)23-14-6-2-7-15-23/h1-19,21,28-29,32H,20H2,(H,33,35)(H,34,36)

> <PUBCHEM_IUPAC_INCHIKEY>
FFXXVTQXIVGGII-UHFFFAOYSA-N

> <PUBCHEM_XLOGP3>
5

> <PUBCHEM_EXACT_MASS>
473.210327

> <PUBCHEM_MOLECULAR_FORMULA>
C31H27N3O2

> <PUBCHEM_MOLECULAR_WEIGHT>
473.56498

> <PUBCHEM_OPENEYE_CAN_SMILES>
C1=CC=C(C=C1)C(C2=CC=CC=C2)C(=O)NC(CC3=CNC4=CC=CC=C43)C(=O)NC5=CC=CC=C5

> <PUBCHEM_OPENEYE_ISO_SMILES>
C1=CC=C(C=C1)C(C2=CC=CC=C2)C(=O)NC(CC3=CNC4=CC=CC=C43)C(=O)NC5=CC=CC=C5

> <PUBCHEM_CACTVS_TPSA>
74

> <PUBCHEM_MONOISOTOPIC_WEIGHT>
473.210327

> <PUBCHEM_TOTAL_CHARGE>
0

> <PUBCHEM_HEAVY_ATOM_COUNT>
36

> <PUBCHEM_ATOM_DEF_STEREO_COUNT>
0

> <PUBCHEM_ATOM_UDEF_STEREO_COUNT>
1

> <PUBCHEM_BOND_DEF_STEREO_COUNT>
0

> <PUBCHEM_BOND_UDEF_STEREO_COUNT>
0

> <PUBCHEM_ISOTOPIC_ATOM_COUNT>
0

> <PUBCHEM_COMPONENT_COUNT>
1

> <PUBCHEM_CACTVS_TAUTO_COUNT>
6

> <PUBCHEM_COORDINATE_TYPE>
1
5
255

> <PUBCHEM_BONDANNOTATIONS>
11  18  8
15  21  8
15  23  8
16  22  8
16  24  8
17  19  8
18  20  8
19  20  8
21  27  8
22  26  8
23  29  8
24  28  8
25  32  8
25  33  8
26  30  8
27  31  8
28  30  8
29  31  8
32  34  8
33  35  8
34  36  8
35  36  8
4  11  8
4  13  8
6  7  3
8  13  8
8  9  8
9  11  8
9  17  8

$$$$

