17396379
  -OEChem-06241222563D

 57 61  0     0  0  0  0  0  0999 V2000
   -2.3560    3.1871   -1.0504 S   0  0  0  0  0  0  0  0  0  0  0  0
   -4.4537   -2.2923    1.1798 S   0  0  0  0  0  0  0  0  0  0  0  0
   -1.5918   -4.4785    0.1433 S   0  0  0  0  0  0  0  0  0  0  0  0
   -2.3744    3.0759   -2.4934 O   0  0  0  0  0  0  0  0  0  0  0  0
   -3.0387    4.2714   -0.3774 O   0  0  0  0  0  0  0  0  0  0  0  0
   -0.7335    3.1283   -0.5058 N   0  0  0  0  0  0  0  0  0  0  0  0
    1.7720    2.3105    0.6442 N   0  0  0  0  0  0  0  0  0  0  0  0
   -3.3303   -0.7053   -0.6599 N   0  0  0  0  0  0  0  0  0  0  0  0
   -0.9502   -2.0771    0.8315 N   0  0  0  0  0  0  0  0  0  0  0  0
    0.1413    2.1423   -1.2015 C   0  0  0  0  0  0  0  0  0  0  0  0
   -0.5551    3.0661    0.9727 C   0  0  0  0  0  0  0  0  0  0  0  0
    1.5983    2.3897   -0.8131 C   0  0  0  0  0  0  0  0  0  0  0  0
    0.9152    3.2956    1.3192 C   0  0  0  0  0  0  0  0  0  0  0  0
    3.1739    2.5142    1.0068 C   0  0  0  0  0  0  0  0  0  0  0  0
    4.0043    1.2850    0.7489 C   0  0  0  0  0  0  0  0  0  0  0  0
   -2.9599    1.6678   -0.3844 C   0  0  0  0  0  0  0  0  0  0  0  0
   -3.5206    1.6153    0.8870 C   0  0  0  0  0  0  0  0  0  0  0  0
    4.1560    0.3235    1.7480 C   0  0  0  0  0  0  0  0  0  0  0  0
    4.6216    1.1074   -0.4894 C   0  0  0  0  0  0  0  0  0  0  0  0
   -2.8886    0.4902   -1.1109 C   0  0  0  0  0  0  0  0  0  0  0  0
   -3.9863    0.4037    1.3857 C   0  0  0  0  0  0  0  0  0  0  0  0
    4.9250   -0.8155    1.5090 C   0  0  0  0  0  0  0  0  0  0  0  0
    5.3905   -0.0316   -0.7283 C   0  0  0  0  0  0  0  0  0  0  0  0
   -3.8691   -0.7174    0.5800 C   0  0  0  0  0  0  0  0  0  0  0  0
    5.5423   -0.9930    0.2710 C   0  0  0  0  0  0  0  0  0  0  0  0
   -2.9716   -2.9476    1.9967 C   0  0  0  0  0  0  0  0  0  0  0  0
   -1.8185   -3.0393    1.0393 C   0  0  0  0  0  0  0  0  0  0  0  0
   -0.2047   -3.7813   -0.6070 C   0  0  0  0  0  0  0  0  0  0  0  0
   -0.0181   -2.4877   -0.1104 C   0  0  0  0  0  0  0  0  0  0  0  0
    0.6561   -4.3388   -1.5659 C   0  0  0  0  0  0  0  0  0  0  0  0
    1.0694   -1.7273   -0.5922 C   0  0  0  0  0  0  0  0  0  0  0  0
    1.7245   -3.5651   -2.0261 C   0  0  0  0  0  0  0  0  0  0  0  0
    1.9304   -2.2761   -1.5470 C   0  0  0  0  0  0  0  0  0  0  0  0
    0.0486    2.2573   -2.2863 H   0  0  0  0  0  0  0  0  0  0  0  0
   -0.1480    1.1223   -0.9324 H   0  0  0  0  0  0  0  0  0  0  0  0
   -0.8588    2.0879    1.3591 H   0  0  0  0  0  0  0  0  0  0  0  0
   -1.1559    3.8425    1.4573 H   0  0  0  0  0  0  0  0  0  0  0  0
    2.1851    1.6241   -1.3275 H   0  0  0  0  0  0  0  0  0  0  0  0
    1.9194    3.3689   -1.1927 H   0  0  0  0  0  0  0  0  0  0  0  0
    1.2070    4.3168    1.0399 H   0  0  0  0  0  0  0  0  0  0  0  0
    1.0263    3.2066    2.4067 H   0  0  0  0  0  0  0  0  0  0  0  0
    3.6082    3.3856    0.4974 H   0  0  0  0  0  0  0  0  0  0  0  0
    3.2590    2.7411    2.0789 H   0  0  0  0  0  0  0  0  0  0  0  0
   -3.6024    2.5049    1.5045 H   0  0  0  0  0  0  0  0  0  0  0  0
    3.6780    0.4478    2.7160 H   0  0  0  0  0  0  0  0  0  0  0  0
    4.5278    1.8541   -1.2734 H   0  0  0  0  0  0  0  0  0  0  0  0
   -2.4602    0.4577   -2.1074 H   0  0  0  0  0  0  0  0  0  0  0  0
   -4.4233    0.3590    2.3781 H   0  0  0  0  0  0  0  0  0  0  0  0
    5.0420   -1.5647    2.2864 H   0  0  0  0  0  0  0  0  0  0  0  0
    5.8735   -0.1688   -1.6913 H   0  0  0  0  0  0  0  0  0  0  0  0
    6.1407   -1.8800    0.0848 H   0  0  0  0  0  0  0  0  0  0  0  0
   -2.7040   -2.2879    2.8295 H   0  0  0  0  0  0  0  0  0  0  0  0
   -3.2106   -3.9259    2.4271 H   0  0  0  0  0  0  0  0  0  0  0  0
    0.5017   -5.3444   -1.9445 H   0  0  0  0  0  0  0  0  0  0  0  0
    1.2462   -0.7249   -0.2163 H   0  0  0  0  0  0  0  0  0  0  0  0
    2.4031   -3.9777   -2.7682 H   0  0  0  0  0  0  0  0  0  0  0  0
    2.7671   -1.6896   -1.9157 H   0  0  0  0  0  0  0  0  0  0  0  0
  1  4  2  0  0  0  0
  1  5  2  0  0  0  0
  1  6  1  0  0  0  0
  1 16  1  0  0  0  0
  2 24  1  0  0  0  0
  2 26  1  0  0  0  0
  3 27  1  0  0  0  0
  3 28  1  0  0  0  0
  6 10  1  0  0  0  0
  6 11  1  0  0  0  0
  7 12  1  0  0  0  0
  7 13  1  0  0  0  0
  7 14  1  0  0  0  0
  8 20  1  0  0  0  0
  8 24  2  0  0  0  0
  9 27  2  0  0  0  0
  9 29  1  0  0  0  0
 10 12  1  0  0  0  0
 10 34  1  0  0  0  0
 10 35  1  0  0  0  0
 11 13  1  0  0  0  0
 11 36  1  0  0  0  0
 11 37  1  0  0  0  0
 12 38  1  0  0  0  0
 12 39  1  0  0  0  0
 13 40  1  0  0  0  0
 13 41  1  0  0  0  0
 14 15  1  0  0  0  0
 14 42  1  0  0  0  0
 14 43  1  0  0  0  0
 15 18  2  0  0  0  0
 15 19  1  0  0  0  0
 16 17  1  0  0  0  0
 16 20  2  0  0  0  0
 17 21  2  0  0  0  0
 17 44  1  0  0  0  0
 18 22  1  0  0  0  0
 18 45  1  0  0  0  0
 19 23  2  0  0  0  0
 19 46  1  0  0  0  0
 20 47  1  0  0  0  0
 21 24  1  0  0  0  0
 21 48  1  0  0  0  0
 22 25  2  0  0  0  0
 22 49  1  0  0  0  0
 23 25  1  0  0  0  0
 23 50  1  0  0  0  0
 25 51  1  0  0  0  0
 26 27  1  0  0  0  0
 26 52  1  0  0  0  0
 26 53  1  0  0  0  0
 28 29  1  0  0  0  0
 28 30  2  0  0  0  0
 29 31  2  0  0  0  0
 30 32  1  0  0  0  0
 30 54  1  0  0  0  0
 31 33  1  0  0  0  0
 31 55  1  0  0  0  0
 32 33  2  0  0  0  0
 32 56  1  0  0  0  0
 33 57  1  0  0  0  0
M  END
> <PUBCHEM_COMPOUND_CID>
17396379

> <PUBCHEM_CONFORMER_RMSD>
1.2

> <PUBCHEM_CONFORMER_DIVERSEORDER>
1
211
114
88
175
86
73
150
11
143
16
83
159
200
139
141
144
91
178
219
207
101
228
135
112
171
145
137
133
169
51
97
185
190
239
13
212
173
76
53
177
37
59
36
224
226
223
181
30
187
188
222
69
27
168
3
108
213
179
194
67
146
205
155
15
176
206
161
81
80
209
134
39
215
240
121
204
118
32
94
89
140
210
110
107
58
172
203
132
92
31
191
220
82
208
60
126
117
199
186
231
154
192
198
153
193
10
125
19
197
61
237
113
66
129
170
33
105
45
216
42
123
183
229
238
78
104
75
138
148
128
164
12
230
142
14
124
202
96
9
165
162
127
99
25
136
167
120
98
115
47
79
189
149
90
5
34
22
72
102
195
28
157
23
63
116
156
68
174
227
106
221
4
122
182
201
163
103
119
147
48
93
74
70
95
18
234
180
64
151
17
131
184
235
2
65
62
41
196
158
87
130
54
166
160
218
225
26
232
152
77
43
71
52
100
214
46
29
49
38
233
40
50
6
56
236
55
20
24
85
44
217
57
35
21
111
109
84
7
8

> <PUBCHEM_MMFF94_PARTIAL_CHARGES>
45
1 1.45
10 0.36
11 0.36
12 0.27
13 0.27
14 0.41
15 -0.14
16 -0.01
17 -0.15
18 -0.15
19 -0.15
2 -0.33
20 0.16
21 -0.15
22 -0.15
23 -0.15
24 0.41
25 -0.15
26 0.41
27 0.2
28 0.04
29 0.23
3 -0.08
30 -0.15
31 -0.15
32 -0.15
33 -0.15
4 -0.65
44 0.15
45 0.15
46 0.15
47 0.15
48 0.15
49 0.15
5 -0.65
50 0.15
51 0.15
54 0.15
55 0.15
56 0.15
57 0.15
6 -0.85
7 -0.81
8 -0.62
9 -0.57

> <PUBCHEM_EFFECTIVE_ROTOR_COUNT>
8.2

> <PUBCHEM_PHARMACOPHORE_FEATURES>
10
1 4 acceptor
1 5 acceptor
1 7 cation
1 8 acceptor
1 9 acceptor
5 3 9 27 28 29 rings
6 15 18 19 22 23 25 rings
6 28 29 30 31 32 33 rings
6 6 7 10 11 12 13 rings
6 8 16 17 20 21 24 rings

> <PUBCHEM_HEAVY_ATOM_COUNT>
33

> <PUBCHEM_ATOM_DEF_STEREO_COUNT>
0

> <PUBCHEM_ATOM_UDEF_STEREO_COUNT>
0

> <PUBCHEM_BOND_DEF_STEREO_COUNT>
0

> <PUBCHEM_BOND_UDEF_STEREO_COUNT>
0

> <PUBCHEM_ISOTOPIC_ATOM_COUNT>
0

> <PUBCHEM_COMPONENT_COUNT>
1

> <PUBCHEM_CACTVS_TAUTO_COUNT>
1

> <PUBCHEM_CONFORMER_ID>
0109729B00000001

> <PUBCHEM_MMFF94_ENERGY>
63.3067

> <PUBCHEM_FEATURE_SELFOVERLAP>
50.833

> <PUBCHEM_SHAPE_FINGERPRINT>
10462674 296 17325491004609012982
10675989 125 15090018774992141007
11756154 5 18337960082250569970
12156800 1 16411211132182262409
12422481 6 18124296226341233427
13111901 137 17897977271670109884
13383668 90 16628553855509463862
13402501 40 18409444791009973745
13561361 72 18410289194929811290
13947930 73 18267604523590642050
14026016 164 16246040966781833008
14251757 5 18411413986935493076
14725015 67 18412832356676868211
150020 26 17905593415878246466
15264996 44 18042943451122495702
15403338 16 17558851519390665803
15927050 60 18120664780232678933
15968369 26 18121787394362121436
16067689 391 16812335093694090478
19319366 153 16248813509731020870
20531524 4 18266445684873101190
20764821 26 18194102045823329727
20775530 9 17911521991127959345
21133410 38 18042675278181473313
238918 7 18261399996228137934
3298306 158 18264779916077246004
508706 21 18341047505551278238
5265222 85 18411412930284562876
56633871 153 17979347565433317195
86090 222 18189054360086801468

> <PUBCHEM_SHAPE_MULTIPOLES>
659.01
9.65
6.92
1.87
8.83
1.5
0.21
0.2
-3.63
-3.81
2.01
-0.1
0.25
2.57

> <PUBCHEM_SHAPE_SELFOVERLAP>
1387.375

> <PUBCHEM_SHAPE_VOLUME>
371.8

> <PUBCHEM_COORDINATE_TYPE>
2
5
10

$$$$

