17396482
  -OEChem-06241222563D

 37 38  0     0  0  0  0  0  0999 V2000
    1.1781    1.5021    0.6687 S   0  0  0  0  0  0  0  0  0  0  0  0
    0.7587   -2.8432   -1.4715 O   0  0  0  0  0  0  0  0  0  0  0  0
    2.1935   -1.8066    0.0345 N   0  0  0  0  0  0  0  0  0  0  0  0
   -1.7824    1.9109   -2.4121 N   0  0  0  0  0  0  0  0  0  0  0  0
    2.4317   -0.9191    1.1712 C   0  0  0  0  0  0  0  0  0  0  0  0
    2.5743    0.5135    0.7454 C   0  0  0  0  0  0  0  0  0  0  0  0
    3.7137    1.1997    0.3869 C   0  0  0  0  0  0  0  0  0  0  0  0
    3.4369    2.5550    0.0453 C   0  0  0  0  0  0  0  0  0  0  0  0
    0.9369   -2.1148   -0.4942 C   0  0  0  0  0  0  0  0  0  0  0  0
    3.3873   -2.3661   -0.5862 C   0  0  0  0  0  0  0  0  0  0  0  0
    5.0732    0.6092    0.3573 C   0  0  0  0  0  0  0  0  0  0  0  0
    2.0966    2.8529    0.1552 C   0  0  0  0  0  0  0  0  0  0  0  0
   -0.2333   -1.4777    0.1788 C   0  0  0  0  0  0  0  0  0  0  0  0
   -2.5387   -0.5450    0.0076 C   0  0  0  0  0  0  0  0  0  0  0  0
   -1.3347   -1.1991   -0.5344 C   0  0  0  0  0  0  0  0  0  0  0  0
   -3.0021    0.6744   -0.4862 C   0  0  0  0  0  0  0  0  0  0  0  0
   -3.2204   -1.1819    1.0445 C   0  0  0  0  0  0  0  0  0  0  0  0
   -4.1471    1.2571    0.0572 C   0  0  0  0  0  0  0  0  0  0  0  0
   -4.3653   -0.5992    1.5879 C   0  0  0  0  0  0  0  0  0  0  0  0
   -4.8287    0.6203    1.0943 C   0  0  0  0  0  0  0  0  0  0  0  0
   -2.3283    1.3576   -1.5503 C   0  0  0  0  0  0  0  0  0  0  0  0
    3.3366   -1.2558    1.6905 H   0  0  0  0  0  0  0  0  0  0  0  0
    1.6435   -1.0241    1.9211 H   0  0  0  0  0  0  0  0  0  0  0  0
    4.1788    3.2792   -0.2667 H   0  0  0  0  0  0  0  0  0  0  0  0
    3.8986   -1.5791   -1.1439 H   0  0  0  0  0  0  0  0  0  0  0  0
    3.1329   -3.1682   -1.2845 H   0  0  0  0  0  0  0  0  0  0  0  0
    4.0484   -2.7743    0.1836 H   0  0  0  0  0  0  0  0  0  0  0  0
    5.8285    1.3713    0.5803 H   0  0  0  0  0  0  0  0  0  0  0  0
    5.2012   -0.1886    1.0938 H   0  0  0  0  0  0  0  0  0  0  0  0
    5.2944    0.2073   -0.6361 H   0  0  0  0  0  0  0  0  0  0  0  0
    1.6125    3.7990   -0.0418 H   0  0  0  0  0  0  0  0  0  0  0  0
   -0.2130   -1.2813    1.2421 H   0  0  0  0  0  0  0  0  0  0  0  0
   -1.3662   -1.3976   -1.6033 H   0  0  0  0  0  0  0  0  0  0  0  0
   -2.8802   -2.1354    1.4418 H   0  0  0  0  0  0  0  0  0  0  0  0
   -4.5223    2.2074   -0.3155 H   0  0  0  0  0  0  0  0  0  0  0  0
   -4.8969   -1.0955    2.3946 H   0  0  0  0  0  0  0  0  0  0  0  0
   -5.7203    1.0737    1.5173 H   0  0  0  0  0  0  0  0  0  0  0  0
  1  6  1  0  0  0  0
  1 12  1  0  0  0  0
  2  9  2  0  0  0  0
  3  5  1  0  0  0  0
  3  9  1  0  0  0  0
  3 10  1  0  0  0  0
  4 21  3  0  0  0  0
  5  6  1  0  0  0  0
  5 22  1  0  0  0  0
  5 23  1  0  0  0  0
  6  7  2  0  0  0  0
  7  8  1  0  0  0  0
  7 11  1  0  0  0  0
  8 12  2  0  0  0  0
  8 24  1  0  0  0  0
  9 13  1  0  0  0  0
 10 25  1  0  0  0  0
 10 26  1  0  0  0  0
 10 27  1  0  0  0  0
 11 28  1  0  0  0  0
 11 29  1  0  0  0  0
 11 30  1  0  0  0  0
 12 31  1  0  0  0  0
 13 15  2  0  0  0  0
 13 32  1  0  0  0  0
 14 15  1  0  0  0  0
 14 16  1  0  0  0  0
 14 17  2  0  0  0  0
 15 33  1  0  0  0  0
 16 18  2  0  0  0  0
 16 21  1  0  0  0  0
 17 19  1  0  0  0  0
 17 34  1  0  0  0  0
 18 20  1  0  0  0  0
 18 35  1  0  0  0  0
 19 20  2  0  0  0  0
 19 36  1  0  0  0  0
 20 37  1  0  0  0  0
M  END
> <PUBCHEM_COMPOUND_CID>
17396482

> <PUBCHEM_CONFORMER_RMSD>
0.8

> <PUBCHEM_CONFORMER_DIVERSEORDER>
2
71
95
263
136
18
174
229
54
170
130
265
100
236
227
243
102
76
128
186
247
111
259
77
187
125
141
269
75
178
196
153
220
240
223
67
193
82
46
209
65
107
131
33
59
254
120
250
11
45
112
129
114
19
106
212
1
66
118
81
204
132
94
245
117
49
104
262
43
4
154
124
47
74
257
210
145
9
87
228
38
246
188
62
253
57
70
72
41
260
85
20
199
61
248
234
213
3
241
215
267
139
144
135
164
203
40
162
224
12
15
115
98
161
92
165
137
138
51
96
99
79
146
53
258
52
5
56
30
140
13
147
88
133
171
157
110
190
189
226
21
7
221
261
91
123
37
266
219
103
195
207
42
270
16
149
222
10
113
156
272
256
231
191
180
121
242
142
198
155
230
163
17
29
225
93
36
127
237
80
89
83
217
31
23
63
60
109
179
8
39
208
35
181
6
84
167
192
27
14
122
160
97
134
32
168
238
166
78
201
116
90
101
150
218
244
26
175
214
34
68
239
206
268
211
205
176
58
22
255
200
202
143
108
69
119
233
48
251
185
264
50
173
148
64
126
28
235
197
152
24
158
172
194
159
252
182
86
271
177
73
216
44
105
249
25
55
184
169
232
183
151

> <PUBCHEM_MMFF94_PARTIAL_CHARGES>
29
1 -0.08
10 0.3
11 0.18
12 -0.11
13 -0.14
14 0.03
15 -0.18
16 0.07
17 -0.15
18 -0.15
19 -0.15
2 -0.57
20 -0.15
21 0.48
24 0.15
3 -0.66
31 0.15
32 0.15
33 0.15
34 0.15
35 0.15
36 0.15
37 0.15
4 -0.56
5 0.48
6 -0.14
7 -0.18
8 -0.15
9 0.62

> <PUBCHEM_EFFECTIVE_ROTOR_COUNT>
5

> <PUBCHEM_PHARMACOPHORE_FEATURES>
4
1 2 acceptor
1 4 acceptor
5 1 6 7 8 12 rings
6 14 16 17 18 19 20 rings

> <PUBCHEM_HEAVY_ATOM_COUNT>
21

> <PUBCHEM_ATOM_DEF_STEREO_COUNT>
0

> <PUBCHEM_ATOM_UDEF_STEREO_COUNT>
0

> <PUBCHEM_BOND_DEF_STEREO_COUNT>
1

> <PUBCHEM_BOND_UDEF_STEREO_COUNT>
0

> <PUBCHEM_ISOTOPIC_ATOM_COUNT>
0

> <PUBCHEM_COMPONENT_COUNT>
1

> <PUBCHEM_CACTVS_TAUTO_COUNT>
1

> <PUBCHEM_CONFORMER_ID>
0109730200000002

> <PUBCHEM_MMFF94_ENERGY>
49.5409

> <PUBCHEM_FEATURE_SELFOVERLAP>
20.297

> <PUBCHEM_SHAPE_FINGERPRINT>
10165383 225 18191013513228867305
10366900 7 17703795773297619075
11595378 159 16630807733190463294
12156800 1 13537349159087386188
12422481 6 18194151649217906426
12633257 1 18272099300469112627
13402501 40 18343584066055127737
13583140 156 17845109513231308283
15081414 286 18333728048836038352
151778 21 18337950074175325832
15342168 16 18260544524662803963
15806764 133 18194956568258361359
1601671 61 18409166606685158792
1813 80 16663721751381536958
18219364 16 18410866481256920949
18785283 64 18410848859117031134
20681677 76 18343029921138175679
21475661 188 17759517060558786529
21524375 3 18264496074637196474
22182313 1 18265625445346573486
23175994 123 18047464814207210759
23557571 272 17632295679290191933
238 59 17906781051629184188
2637199 183 18337381626869019856
3187 122 17346888831892755829
3524813 1 18200035186691824191
474 4 18334013895551607163
49207404 50 18342449310173478499
4921388 177 14418138362038872517
5081480 168 17751902847592762396
6049 1 18201721811769623575
6287921 2 18200020725500437445
9862522 239 18124060977928496336

> <PUBCHEM_SHAPE_MULTIPOLES>
420.19
9.5
3.12
1.44
2.19
0.27
-0.5
-2.82
2.97
-2.7
-0.96
1.23
-0.2
1.27

> <PUBCHEM_SHAPE_SELFOVERLAP>
874.014

> <PUBCHEM_SHAPE_VOLUME>
240.2

> <PUBCHEM_COORDINATE_TYPE>
2
5
10

$$$$

