13891
  -OEChem-06241222403D

 18 19  0     0  0  0  0  0  0999 V2000
   -3.7262   -0.4967    0.0015 Cl  0  0  0  0  0  0  0  0  0  0  0  0
   -1.3673   -2.2874   -0.0024 O   0  0  0  0  0  0  0  0  0  0  0  0
   -0.0319    2.8937   -0.0007 O   0  0  0  0  0  0  0  0  0  0  0  0
    0.3670   -0.6962    0.0001 C   0  0  0  0  0  0  0  0  0  0  0  0
    0.7212    0.6553   -0.0002 C   0  0  0  0  0  0  0  0  0  0  0  0
   -1.0539   -1.1028   -0.0001 C   0  0  0  0  0  0  0  0  0  0  0  0
   -0.3177    1.7026   -0.0005 C   0  0  0  0  0  0  0  0  0  0  0  0
    1.3649   -1.6779    0.0005 C   0  0  0  0  0  0  0  0  0  0  0  0
    2.0711    1.0249   -0.0001 C   0  0  0  0  0  0  0  0  0  0  0  0
   -2.0684   -0.0220    0.0005 C   0  0  0  0  0  0  0  0  0  0  0  0
   -1.7303    1.2692    0.0003 C   0  0  0  0  0  0  0  0  0  0  0  0
    2.7096   -1.3055    0.0008 C   0  0  0  0  0  0  0  0  0  0  0  0
    3.0619    0.0428    0.0003 C   0  0  0  0  0  0  0  0  0  0  0  0
    1.1167   -2.7360    0.0008 H   0  0  0  0  0  0  0  0  0  0  0  0
    2.3706    2.0695   -0.0003 H   0  0  0  0  0  0  0  0  0  0  0  0
   -2.4794    2.0549    0.0007 H   0  0  0  0  0  0  0  0  0  0  0  0
    3.4832   -2.0680    0.0012 H   0  0  0  0  0  0  0  0  0  0  0  0
    4.1095    0.3295    0.0004 H   0  0  0  0  0  0  0  0  0  0  0  0
  1 10  1  0  0  0  0
  2  6  2  0  0  0  0
  3  7  2  0  0  0  0
  4  5  1  0  0  0  0
  4  6  1  0  0  0  0
  4  8  2  0  0  0  0
  5  7  1  0  0  0  0
  5  9  2  0  0  0  0
  6 10  1  0  0  0  0
  7 11  1  0  0  0  0
  8 12  1  0  0  0  0
  8 14  1  0  0  0  0
  9 13  1  0  0  0  0
  9 15  1  0  0  0  0
 10 11  2  0  0  0  0
 11 16  1  0  0  0  0
 12 13  2  0  0  0  0
 12 17  1  0  0  0  0
 13 18  1  0  0  0  0
M  END
> <PUBCHEM_COMPOUND_CID>
13891

> <PUBCHEM_CONFORMER_RMSD>
0.4

> <PUBCHEM_CONFORMER_DIVERSEORDER>
1

> <PUBCHEM_MMFF94_PARTIAL_CHARGES>
18
1 -0.14
10 0.15
11 -0.14
12 -0.15
13 -0.15
14 0.15
15 0.15
16 0.15
17 0.15
18 0.15
2 -0.57
3 -0.57
4 0.09
5 0.09
6 0.47
7 0.47
8 -0.15
9 -0.15

> <PUBCHEM_EFFECTIVE_ROTOR_COUNT>
0

> <PUBCHEM_PHARMACOPHORE_FEATURES>
4
1 2 acceptor
1 3 acceptor
6 4 5 6 7 10 11 rings
6 4 5 8 9 12 13 rings

> <PUBCHEM_HEAVY_ATOM_COUNT>
13

> <PUBCHEM_ATOM_DEF_STEREO_COUNT>
0

> <PUBCHEM_ATOM_UDEF_STEREO_COUNT>
0

> <PUBCHEM_BOND_DEF_STEREO_COUNT>
0

> <PUBCHEM_BOND_UDEF_STEREO_COUNT>
0

> <PUBCHEM_ISOTOPIC_ATOM_COUNT>
0

> <PUBCHEM_COMPONENT_COUNT>
1

> <PUBCHEM_CACTVS_TAUTO_COUNT>
1

> <PUBCHEM_CONFORMER_ID>
0000364300000001

> <PUBCHEM_MMFF94_ENERGY>
33.1665

> <PUBCHEM_FEATURE_SELFOVERLAP>
20.319

> <PUBCHEM_SHAPE_FINGERPRINT>
10967382 1 18338798918383621126
11206711 2 18195805391197996716
11471102 20 18411142403125774119
12032990 46 18411131454906288619
12382932 28 18409733919840056202
12423570 1 7166726685214642007
12524768 44 18334852831344625734
13140716 1 18050286960065873465
14648413 74 18053101722823285785
16945 1 18410575058924982116
17844478 74 17988636411294057437
193761 8 17762338015856679495
20201158 50 18412827975462007755
20510252 161 18189338029544147040
20588541 1 18410854330646838423
20871998 184 18115592684925214423
21501502 16 18266174127001938552
22802520 49 17682107017534728270
2334 1 18122343476077455202
23402539 116 18261968417531927839
23463225 33 18411980273418854022
23552423 10 18272086054963992550
23559900 14 18190178066009492134
241688 4 18339079396949213369
2748010 2 18338800142607692613
5084963 1 17970353830436350914
528886 8 18409735019320145746
53812653 166 18189901907194627928
53812654 25 18261684704729452207
66348 1 18409449146228131176
7364860 26 18119247251233625665

> <PUBCHEM_SHAPE_MULTIPOLES>
257.67
4.48
2.38
0.61
1.01
0.74
0
-1.21
0
0.11
0
0
-0.01
0

> <PUBCHEM_SHAPE_SELFOVERLAP>
558.514

> <PUBCHEM_SHAPE_VOLUME>
141.9

> <PUBCHEM_COORDINATE_TYPE>
2
5
10

$$$$

