51090877
  -OEChem-06241223003D

 42 42  0     0  0  0  0  0  0999 V2000
   -2.5579    2.1336   -1.1046 F   0  0  0  0  0  0  0  0  0  0  0  0
   -2.4888    2.0964    1.0683 F   0  0  0  0  0  0  0  0  0  0  0  0
   -2.1665    3.9605    0.0077 F   0  0  0  0  0  0  0  0  0  0  0  0
    2.3535   -1.7347    1.5963 O   0  0  0  0  0  0  0  0  0  0  0  0
   -0.4505   -1.7276   -1.2411 O   0  0  0  0  0  0  0  0  0  0  0  0
   -2.9157   -1.1050    1.4463 O   0  0  0  0  0  0  0  0  0  0  0  0
    3.5259   -0.9672   -0.2579 N   0  0  0  0  0  0  0  0  0  0  0  0
    0.7966   -3.2866   -0.0510 N   0  0  0  0  0  0  0  0  0  0  0  0
   -2.7798   -2.6607   -0.2825 N   0  0  0  0  0  0  0  0  0  0  0  0
    3.7967    1.4903   -0.2865 C   0  0  0  0  0  0  0  0  0  0  0  0
    4.1673    0.1642    0.3729 C   0  0  0  0  0  0  0  0  0  0  0  0
    2.3188    1.7879   -0.2201 C   0  0  0  0  0  0  0  0  0  0  0  0
    1.4740    1.3555   -1.2425 C   0  0  0  0  0  0  0  0  0  0  0  0
    1.7971    2.4942    0.8637 C   0  0  0  0  0  0  0  0  0  0  0  0
   -0.4137    2.3363   -0.0975 C   0  0  0  0  0  0  0  0  0  0  0  0
    0.1078    1.6297   -1.1812 C   0  0  0  0  0  0  0  0  0  0  0  0
    0.4310    2.7686    0.9250 C   0  0  0  0  0  0  0  0  0  0  0  0
    2.6674   -1.8267    0.4122 C   0  0  0  0  0  0  0  0  0  0  0  0
    2.1047   -2.8831   -0.5146 C   0  0  0  0  0  0  0  0  0  0  0  0
   -1.8749    2.6266   -0.0307 C   0  0  0  0  0  0  0  0  0  0  0  0
   -0.3783   -2.6701   -0.4566 C   0  0  0  0  0  0  0  0  0  0  0  0
   -1.5939   -3.3401    0.1479 C   0  0  0  0  0  0  0  0  0  0  0  0
   -3.3474   -1.5929    0.4051 C   0  0  0  0  0  0  0  0  0  0  0  0
   -4.5735   -1.0492   -0.2783 C   0  0  0  0  0  0  0  0  0  0  0  0
    4.1150    1.4862   -1.3373 H   0  0  0  0  0  0  0  0  0  0  0  0
    4.3559    2.3046    0.1911 H   0  0  0  0  0  0  0  0  0  0  0  0
    3.9205    0.1847    1.4401 H   0  0  0  0  0  0  0  0  0  0  0  0
    5.2471    0.0029    0.2855 H   0  0  0  0  0  0  0  0  0  0  0  0
    3.7534   -1.1507   -1.2308 H   0  0  0  0  0  0  0  0  0  0  0  0
    1.8670    0.8047   -2.0930 H   0  0  0  0  0  0  0  0  0  0  0  0
    2.4449    2.8340    1.6674 H   0  0  0  0  0  0  0  0  0  0  0  0
   -0.5331    1.2838   -1.9874 H   0  0  0  0  0  0  0  0  0  0  0  0
    0.0335    3.3186    1.7738 H   0  0  0  0  0  0  0  0  0  0  0  0
    2.7602   -3.7583   -0.4950 H   0  0  0  0  0  0  0  0  0  0  0  0
    2.0247   -2.5072   -1.5394 H   0  0  0  0  0  0  0  0  0  0  0  0
    0.7480   -4.0563    0.6104 H   0  0  0  0  0  0  0  0  0  0  0  0
   -1.5221   -3.3136    1.2398 H   0  0  0  0  0  0  0  0  0  0  0  0
   -1.6497   -4.3776   -0.1946 H   0  0  0  0  0  0  0  0  0  0  0  0
   -3.2079   -2.9661   -1.1519 H   0  0  0  0  0  0  0  0  0  0  0  0
   -5.2112   -1.8654   -0.6295 H   0  0  0  0  0  0  0  0  0  0  0  0
   -5.1453   -0.4381    0.4256 H   0  0  0  0  0  0  0  0  0  0  0  0
   -4.2695   -0.4325   -1.1284 H   0  0  0  0  0  0  0  0  0  0  0  0
  1 20  1  0  0  0  0
  2 20  1  0  0  0  0
  3 20  1  0  0  0  0
  4 18  2  0  0  0  0
  5 21  2  0  0  0  0
  6 23  2  0  0  0  0
  7 11  1  0  0  0  0
  7 18  1  0  0  0  0
  7 29  1  0  0  0  0
  8 19  1  0  0  0  0
  8 21  1  0  0  0  0
  8 36  1  0  0  0  0
  9 22  1  0  0  0  0
  9 23  1  0  0  0  0
  9 39  1  0  0  0  0
 10 11  1  0  0  0  0
 10 12  1  0  0  0  0
 10 25  1  0  0  0  0
 10 26  1  0  0  0  0
 11 27  1  0  0  0  0
 11 28  1  0  0  0  0
 12 13  2  0  0  0  0
 12 14  1  0  0  0  0
 13 16  1  0  0  0  0
 13 30  1  0  0  0  0
 14 17  2  0  0  0  0
 14 31  1  0  0  0  0
 15 16  2  0  0  0  0
 15 17  1  0  0  0  0
 15 20  1  0  0  0  0
 16 32  1  0  0  0  0
 17 33  1  0  0  0  0
 18 19  1  0  0  0  0
 19 34  1  0  0  0  0
 19 35  1  0  0  0  0
 21 22  1  0  0  0  0
 22 37  1  0  0  0  0
 22 38  1  0  0  0  0
 23 24  1  0  0  0  0
 24 40  1  0  0  0  0
 24 41  1  0  0  0  0
 24 42  1  0  0  0  0
M  END
> <PUBCHEM_COMPOUND_CID>
51090877

> <PUBCHEM_CONFORMER_RMSD>
1.2

> <PUBCHEM_CONFORMER_DIVERSEORDER>
1
44
37
16
59
18
8
34
21
9
4
35
71
36
45
23
46
31
22
63
73
39
50
40
62
68
57
72
61
29
43
6
19
15
25
49
11
42
60
54
10
24
53
66
58
17
28
20
32
14
13
38
27
67
2
41
48
30
12
65
52
47
56
33
7
64
51
55
70
26
3
74
69
5

> <PUBCHEM_MMFF94_PARTIAL_CHARGES>
31
1 -0.34
10 0.14
11 0.3
12 -0.14
13 -0.15
14 -0.15
15 -0.14
16 -0.15
17 -0.15
18 0.57
19 0.36
2 -0.34
20 1.16
21 0.57
22 0.36
23 0.57
24 0.06
29 0.37
3 -0.34
30 0.15
31 0.15
32 0.15
33 0.15
36 0.37
39 0.37
4 -0.57
5 -0.57
6 -0.57
7 -0.73
8 -0.73
9 -0.73

> <PUBCHEM_EFFECTIVE_ROTOR_COUNT>
11

> <PUBCHEM_PHARMACOPHORE_FEATURES>
7
1 4 acceptor
1 5 acceptor
1 6 acceptor
1 7 donor
1 8 donor
1 9 donor
6 12 13 14 15 16 17 rings

> <PUBCHEM_HEAVY_ATOM_COUNT>
24

> <PUBCHEM_ATOM_DEF_STEREO_COUNT>
0

> <PUBCHEM_ATOM_UDEF_STEREO_COUNT>
0

> <PUBCHEM_BOND_DEF_STEREO_COUNT>
0

> <PUBCHEM_BOND_UDEF_STEREO_COUNT>
0

> <PUBCHEM_ISOTOPIC_ATOM_COUNT>
0

> <PUBCHEM_COMPONENT_COUNT>
1

> <PUBCHEM_CACTVS_TAUTO_COUNT>
8

> <PUBCHEM_CONFORMER_ID>
030B95BD00000001

> <PUBCHEM_MMFF94_ENERGY>
36.7728

> <PUBCHEM_FEATURE_SELFOVERLAP>
35.52

> <PUBCHEM_SHAPE_FINGERPRINT>
104564 63 18411697647960685342
10708813 3 17903348221713556643
1100329 8 17905890640462925870
11513181 2 18041841847529401647
12038231 1 17545601613790484939
12293681 4 18129376008753421122
12422481 6 18194656359214535353
12539773 59 16452094444947266329
12553582 1 18122344584099922412
13122387 1 18122906696550590691
13140716 1 18051421669240868138
14178342 30 16175679515653433322
14765038 42 17829864582516836696
14790565 3 16898490113941972685
17093844 170 18266184928575981088
19930381 70 16465580036613544121
20621476 13 17905617605376377359
20621476 7 18338502097874104995
20905425 154 18409719656037453327
22113638 7 17976259041191081151
3014063 31 18410014290925782063
463206 1 18196651787824377771
5282274 181 18194389228668963145
653340 110 18335710424871412352
7832392 63 17759805841042511966

> <PUBCHEM_SHAPE_MULTIPOLES>
439.54
6.73
5.42
1.13
2.55
0.8
-0.07
-1.77
-0.61
1.06
-0.15
-0.04
0.14
-0.11

> <PUBCHEM_SHAPE_SELFOVERLAP>
897.6

> <PUBCHEM_SHAPE_VOLUME>
253

> <PUBCHEM_COORDINATE_TYPE>
2
5
10

$$$$

