17395472
  -OEChem-06241222503D

 46 49  0     1  0  0  0  0  0999 V2000
   -3.9381   -0.9596    0.3745 O   0  0  0  0  0  0  0  0  0  0  0  0
    0.8445   -0.9959   -1.4764 O   0  0  0  0  0  0  0  0  0  0  0  0
    6.5936   -0.3792   -0.0718 O   0  0  0  0  0  0  0  0  0  0  0  0
   -1.0016   -0.9204   -0.0690 N   0  0  0  0  0  0  0  0  0  0  0  0
    4.6738   -1.5714    0.4540 N   0  0  0  0  0  0  0  0  0  0  0  0
    3.3301   -1.6020    0.6853 N   0  0  0  0  0  0  0  0  0  0  0  0
   -1.9953   -1.1638   -1.0874 C   0  0  2  0  0  0  0  0  0  0  0  0
   -3.3112   -0.5014   -0.7403 C   0  0  0  0  0  0  0  0  0  0  0  0
    1.1603   -0.5956    0.8809 C   0  0  0  0  0  0  0  0  0  0  0  0
    2.6447   -0.5055    0.6157 C   0  0  0  0  0  0  0  0  0  0  0  0
    3.2389    0.8033    0.2954 C   0  0  0  0  0  0  0  0  0  0  0  0
   -4.0402    0.5049   -1.3306 C   0  0  0  0  0  0  0  0  0  0  0  0
   -5.1983    0.6834   -0.5288 C   0  0  0  0  0  0  0  0  0  0  0  0
   -2.1453   -2.6618   -1.3449 C   0  0  0  0  0  0  0  0  0  0  0  0
    0.3529   -0.8571   -0.3593 C   0  0  0  0  0  0  0  0  0  0  0  0
   -5.0878   -0.2399    0.5059 C   0  0  0  0  0  0  0  0  0  0  0  0
    4.6085    0.8343    0.0585 C   0  0  0  0  0  0  0  0  0  0  0  0
    5.3831   -0.4170    0.1386 C   0  0  0  0  0  0  0  0  0  0  0  0
    2.4893    1.9811    0.2244 C   0  0  0  0  0  0  0  0  0  0  0  0
   -6.3259    1.5223   -0.5626 C   0  0  0  0  0  0  0  0  0  0  0  0
    5.2406    2.0436   -0.2517 C   0  0  0  0  0  0  0  0  0  0  0  0
   -6.0297   -0.3917    1.5218 C   0  0  0  0  0  0  0  0  0  0  0  0
    3.1199    3.1872   -0.0848 C   0  0  0  0  0  0  0  0  0  0  0  0
    4.4928    3.2188   -0.3225 C   0  0  0  0  0  0  0  0  0  0  0  0
   -7.2909    1.3929    0.4456 C   0  0  0  0  0  0  0  0  0  0  0  0
   -7.1432    0.4522    1.4681 C   0  0  0  0  0  0  0  0  0  0  0  0
    5.3345   -2.8617    0.5614 C   0  0  0  0  0  0  0  0  0  0  0  0
   -1.6340   -0.7055   -2.0175 H   0  0  0  0  0  0  0  0  0  0  0  0
    0.7855    0.2879    1.4039 H   0  0  0  0  0  0  0  0  0  0  0  0
    0.9958   -1.4390    1.5656 H   0  0  0  0  0  0  0  0  0  0  0  0
   -1.3085   -0.8308    0.8959 H   0  0  0  0  0  0  0  0  0  0  0  0
   -3.7725    1.0449   -2.2280 H   0  0  0  0  0  0  0  0  0  0  0  0
   -2.4666   -3.1918   -0.4406 H   0  0  0  0  0  0  0  0  0  0  0  0
   -2.8892   -2.8530   -2.1261 H   0  0  0  0  0  0  0  0  0  0  0  0
   -1.1957   -3.1043   -1.6648 H   0  0  0  0  0  0  0  0  0  0  0  0
    1.4174    2.0025    0.3861 H   0  0  0  0  0  0  0  0  0  0  0  0
   -6.4543    2.2580   -1.3508 H   0  0  0  0  0  0  0  0  0  0  0  0
    6.3095    2.0915   -0.4408 H   0  0  0  0  0  0  0  0  0  0  0  0
   -5.9082   -1.1235    2.3115 H   0  0  0  0  0  0  0  0  0  0  0  0
    2.5387    4.1031   -0.1441 H   0  0  0  0  0  0  0  0  0  0  0  0
    4.9804    4.1588   -0.5638 H   0  0  0  0  0  0  0  0  0  0  0  0
   -8.1678    2.0353    0.4308 H   0  0  0  0  0  0  0  0  0  0  0  0
   -7.9080    0.3745    2.2369 H   0  0  0  0  0  0  0  0  0  0  0  0
    5.1831   -3.2518    1.5722 H   0  0  0  0  0  0  0  0  0  0  0  0
    6.4068   -2.7791    0.3668 H   0  0  0  0  0  0  0  0  0  0  0  0
    4.8902   -3.5466   -0.1669 H   0  0  0  0  0  0  0  0  0  0  0  0
  1  8  1  0  0  0  0
  1 16  1  0  0  0  0
  2 15  2  0  0  0  0
  3 18  2  0  0  0  0
  4  7  1  0  0  0  0
  4 15  1  0  0  0  0
  4 31  1  0  0  0  0
  5  6  1  0  0  0  0
  5 18  1  0  0  0  0
  5 27  1  0  0  0  0
  6 10  2  0  0  0  0
  7  8  1  0  0  0  0
  7 14  1  0  0  0  0
  7 28  1  0  0  0  0
  8 12  2  0  0  0  0
  9 10  1  0  0  0  0
  9 15  1  0  0  0  0
  9 29  1  0  0  0  0
  9 30  1  0  0  0  0
 10 11  1  0  0  0  0
 11 17  1  0  0  0  0
 11 19  2  0  0  0  0
 12 13  1  0  0  0  0
 12 32  1  0  0  0  0
 13 16  1  0  0  0  0
 13 20  2  0  0  0  0
 14 33  1  0  0  0  0
 14 34  1  0  0  0  0
 14 35  1  0  0  0  0
 16 22  2  0  0  0  0
 17 18  1  0  0  0  0
 17 21  2  0  0  0  0
 19 23  1  0  0  0  0
 19 36  1  0  0  0  0
 20 25  1  0  0  0  0
 20 37  1  0  0  0  0
 21 24  1  0  0  0  0
 21 38  1  0  0  0  0
 22 26  1  0  0  0  0
 22 39  1  0  0  0  0
 23 24  2  0  0  0  0
 23 40  1  0  0  0  0
 24 41  1  0  0  0  0
 25 26  2  0  0  0  0
 25 42  1  0  0  0  0
 26 43  1  0  0  0  0
 27 44  1  0  0  0  0
 27 45  1  0  0  0  0
 27 46  1  0  0  0  0
M  END
> <PUBCHEM_COMPOUND_CID>
17395472

> <PUBCHEM_CONFORMER_RMSD>
0.8

> <PUBCHEM_CONFORMER_DIVERSEORDER>
3
163
224
132
40
279
284
194
108
238
100
254
41
248
256
93
74
46
117
263
181
156
289
300
311
202
116
70
95
304
274
65
236
215
242
130
102
71
169
291
294
21
285
50
16
63
197
186
104
271
299
38
90
261
34
39
161
305
187
188
138
210
59
213
109
11
259
177
229
79
198
174
4
226
214
235
10
220
146
112
145
292
143
110
240
22
278
24
201
193
280
124
166
205
82
9
227
85
13
111
245
266
6
164
113
173
125
199
122
251
273
31
185
75
243
288
207
134
45
258
123
44
237
64
17
302
269
290
298
26
83
211
270
142
12
203
276
184
23
42
275
119
287
253
129
216
157
222
246
18
241
159
5
37
92
265
30
244
301
53
206
54
89
268
96
144
225
84
78
200
137
80
190
309
165
56
20
52
219
293
121
172
212
223
99
262
32
77
86
233
281
295
232
127
208
62
162
182
175
312
1
191
196
98
154
264
27
115
155
168
128
228
209
308
28
179
183
81
19
217
72
106
103
255
286
315
176
297
101
147
150
282
170
257
141
87
57
29
231
277
88
66
306
234
25
167
105
133
8
296
153
267
73
61
239
114
204
260
303
120
180
136
249
126
189
97
15
140
152
76
47
55
221
178
7
149
94
69
131
49
60
68
247
252
58
314
14
195
218
35
171
118
36
230
307
33
107
192
283
43
48
250
310
272
151
160
2
67
135
148
313
139
91
51
158

> <PUBCHEM_MMFF94_PARTIAL_CHARGES>
35
1 -0.28
10 0.3
11 0.09
12 -0.15
15 0.57
16 0.14
17 0.09
18 0.54
19 -0.15
2 -0.57
20 -0.15
21 -0.15
22 -0.15
23 -0.15
24 -0.15
25 -0.15
26 -0.15
27 0.3
3 -0.57
31 0.37
32 0.15
36 0.15
37 0.15
38 0.15
39 0.15
4 -0.73
40 0.15
41 0.15
42 0.15
43 0.15
5 -0.3
6 -0.51
7 0.48
8 -0.04
9 0.12

> <PUBCHEM_EFFECTIVE_ROTOR_COUNT>
5

> <PUBCHEM_PHARMACOPHORE_FEATURES>
9
1 1 acceptor
1 2 acceptor
1 3 acceptor
1 4 donor
1 6 acceptor
5 1 8 12 13 16 rings
6 11 17 19 21 23 24 rings
6 13 16 20 22 25 26 rings
6 5 6 10 11 17 18 rings

> <PUBCHEM_HEAVY_ATOM_COUNT>
27

> <PUBCHEM_ATOM_DEF_STEREO_COUNT>
0

> <PUBCHEM_ATOM_UDEF_STEREO_COUNT>
1

> <PUBCHEM_BOND_DEF_STEREO_COUNT>
0

> <PUBCHEM_BOND_UDEF_STEREO_COUNT>
0

> <PUBCHEM_ISOTOPIC_ATOM_COUNT>
0

> <PUBCHEM_COMPONENT_COUNT>
1

> <PUBCHEM_CACTVS_TAUTO_COUNT>
2

> <PUBCHEM_CONFORMER_ID>
01096F1000000003

> <PUBCHEM_MMFF94_ENERGY>
61.0901

> <PUBCHEM_FEATURE_SELFOVERLAP>
45.796

> <PUBCHEM_SHAPE_FINGERPRINT>
10 15 18411410710302538955
10319926 262 17346590886153820637
10411042 1 18052541260558626146
10554248 39 17967537903927249327
10595046 47 18192440666479166255
11370993 144 18272373044494445703
11475781 23 13840541921561371859
12107183 9 18335426815217080674
12596602 18 18272084994587028019
12616971 3 18335428958315629655
12730499 353 17918275351129650898
12778500 126 18411697703732112748
12788726 201 17531237375032201353
13167372 99 18334574672293800705
13785724 45 18046341101098455662
14341114 176 18273494580851431813
14918310 93 17605265372018297566
14933364 13 18273212010779243625
15183329 4 17894908529367392909
15238133 3 17458064863044031779
15348495 7 18201997707932171515
1577012 14 18187367601749068509
16760501 71 18341610378738860341
17844677 252 18341612637643432821
18335252 114 18337121154377676781
19302320 297 18264476455823233577
19958102 18 6411023045467878345
21033648 29 17703789167843795728
21033650 10 15141500516196113083
21315759 148 17632855309165003811
21315759 40 17749118798631864207
22033318 11 18046048621845256193
22122407 14 18335972121734884209
22956985 138 13612586802835597136
23081809 10 18041006120123762439
249057 3 18334576854548747598
2838139 119 18335708256371876677
312425 54 17346877858572587249
3178227 256 18130793386810667218
397830 11 18059847321628961819
4073 2 17916862417983631258
4144715 1 18201146733282193699
5104073 3 18198635349645018498
6058803 2 18046084674307562614
9658208 31 17275095111849857490

> <PUBCHEM_SHAPE_MULTIPOLES>
523.1
20.22
2.94
1.18
17.77
0.95
0.03
5.7
-4.68
-4.88
0.37
1.66
-0.32
-1.07

> <PUBCHEM_SHAPE_SELFOVERLAP>
1150.682

> <PUBCHEM_SHAPE_VOLUME>
283.4

> <PUBCHEM_COORDINATE_TYPE>
2
5
10

$$$$

