13080
  -OEChem-06261207443D

 38 39  0     1  0  0  0  0  0999 V2000
    0.0055   -0.7177    0.0529 O   0  0  0  0  0  0  0  0  0  0  0  0
    2.0418   -2.1322    1.3950 O   0  0  0  0  0  0  0  0  0  0  0  0
   -3.4665    0.4619   -0.2477 N   0  0  0  0  0  0  0  0  0  0  0  0
   -4.2656    1.4746    0.4413 C   0  0  0  0  0  0  0  0  0  0  0  0
   -4.2184   -0.7834   -0.0953 C   0  0  0  0  0  0  0  0  0  0  0  0
   -5.6857    1.1385    0.0108 C   0  0  0  0  0  0  0  0  0  0  0  0
   -5.6555   -0.3463   -0.3384 C   0  0  0  0  0  0  0  0  0  0  0  0
   -2.1154    0.3637    0.2842 C   0  0  0  0  0  0  0  0  0  0  0  0
   -1.3082   -0.6677   -0.4878 C   0  0  0  0  0  0  0  0  0  0  0  0
    0.8141   -1.6675   -0.6282 C   0  0  0  0  0  0  0  0  0  0  0  0
    2.1907   -1.7450    0.0306 C   0  0  1  0  0  0  0  0  0  0  0  0
    2.9340   -0.4284   -0.0217 C   0  0  0  0  0  0  0  0  0  0  0  0
    3.7544   -0.1577   -1.1034 C   0  0  0  0  0  0  0  0  0  0  0  0
    2.7779    0.4779    1.0131 C   0  0  0  0  0  0  0  0  0  0  0  0
    4.4397    1.0563   -1.1519 C   0  0  0  0  0  0  0  0  0  0  0  0
    3.4632    1.6920    0.9645 C   0  0  0  0  0  0  0  0  0  0  0  0
    4.2941    1.9811   -0.1180 C   0  0  0  0  0  0  0  0  0  0  0  0
   -3.9858    2.4915    0.1487 H   0  0  0  0  0  0  0  0  0  0  0  0
   -4.1791    1.3881    1.5321 H   0  0  0  0  0  0  0  0  0  0  0  0
   -4.1234   -1.1985    0.9164 H   0  0  0  0  0  0  0  0  0  0  0  0
   -3.9299   -1.5502   -0.8207 H   0  0  0  0  0  0  0  0  0  0  0  0
   -5.9731    1.7212   -0.8723 H   0  0  0  0  0  0  0  0  0  0  0  0
   -6.4079    1.3539    0.8048 H   0  0  0  0  0  0  0  0  0  0  0  0
   -6.3584   -0.9207    0.2735 H   0  0  0  0  0  0  0  0  0  0  0  0
   -5.9337   -0.4851   -1.3899 H   0  0  0  0  0  0  0  0  0  0  0  0
   -2.1107    0.1129    1.3534 H   0  0  0  0  0  0  0  0  0  0  0  0
   -1.6093    1.3342    0.2011 H   0  0  0  0  0  0  0  0  0  0  0  0
   -1.2558   -0.3945   -1.5489 H   0  0  0  0  0  0  0  0  0  0  0  0
   -1.7497   -1.6662   -0.4006 H   0  0  0  0  0  0  0  0  0  0  0  0
    0.9081   -1.3809   -1.6824 H   0  0  0  0  0  0  0  0  0  0  0  0
    0.3312   -2.6504   -0.5687 H   0  0  0  0  0  0  0  0  0  0  0  0
    2.7926   -2.5219   -0.4558 H   0  0  0  0  0  0  0  0  0  0  0  0
    3.8720   -0.8710   -1.9139 H   0  0  0  0  0  0  0  0  0  0  0  0
    2.1281    0.2829    1.8610 H   0  0  0  0  0  0  0  0  0  0  0  0
    1.5801   -2.9879    1.4087 H   0  0  0  0  0  0  0  0  0  0  0  0
    5.0860    1.2818   -1.9951 H   0  0  0  0  0  0  0  0  0  0  0  0
    3.3477    2.4136    1.7679 H   0  0  0  0  0  0  0  0  0  0  0  0
    4.8268    2.9267   -0.1562 H   0  0  0  0  0  0  0  0  0  0  0  0
  1  9  1  0  0  0  0
  1 10  1  0  0  0  0
  2 11  1  0  0  0  0
  2 35  1  0  0  0  0
  3  4  1  0  0  0  0
  3  5  1  0  0  0  0
  3  8  1  0  0  0  0
  4  6  1  0  0  0  0
  4 18  1  0  0  0  0
  4 19  1  0  0  0  0
  5  7  1  0  0  0  0
  5 20  1  0  0  0  0
  5 21  1  0  0  0  0
  6  7  1  0  0  0  0
  6 22  1  0  0  0  0
  6 23  1  0  0  0  0
  7 24  1  0  0  0  0
  7 25  1  0  0  0  0
  8  9  1  0  0  0  0
  8 26  1  0  0  0  0
  8 27  1  0  0  0  0
  9 28  1  0  0  0  0
  9 29  1  0  0  0  0
 10 11  1  0  0  0  0
 10 30  1  0  0  0  0
 10 31  1  0  0  0  0
 11 12  1  0  0  0  0
 11 32  1  0  0  0  0
 12 13  2  0  0  0  0
 12 14  1  0  0  0  0
 13 15  1  0  0  0  0
 13 33  1  0  0  0  0
 14 16  2  0  0  0  0
 14 34  1  0  0  0  0
 15 17  2  0  0  0  0
 15 36  1  0  0  0  0
 16 17  1  0  0  0  0
 16 37  1  0  0  0  0
 17 38  1  0  0  0  0
M  END
> <PUBCHEM_COMPOUND_CID>
13080

> <PUBCHEM_CONFORMER_RMSD>
0.8

> <PUBCHEM_CONFORMER_DIVERSEORDER>
1
14
46
4
20
36
35
27
51
10
5
47
52
49
3
2
53
45
38
22
30
37
9
41
7
44
18
50
8
29
6
25
43
17
12
33
28
13
54
26
32
24
39
48
21
16
42
34
31
15
23
19
11
40

> <PUBCHEM_MMFF94_PARTIAL_CHARGES>
21
1 -0.56
10 0.28
11 0.42
12 -0.14
13 -0.15
14 -0.15
15 -0.15
16 -0.15
17 -0.15
2 -0.68
3 -0.81
33 0.15
34 0.15
35 0.4
36 0.15
37 0.15
38 0.15
4 0.27
5 0.27
8 0.27
9 0.28

> <PUBCHEM_EFFECTIVE_ROTOR_COUNT>
7

> <PUBCHEM_PHARMACOPHORE_FEATURES>
6
1 1 acceptor
1 2 acceptor
1 2 donor
1 3 cation
5 3 4 5 6 7 rings
6 12 13 14 15 16 17 rings

> <PUBCHEM_HEAVY_ATOM_COUNT>
17

> <PUBCHEM_ATOM_DEF_STEREO_COUNT>
0

> <PUBCHEM_ATOM_UDEF_STEREO_COUNT>
1

> <PUBCHEM_BOND_DEF_STEREO_COUNT>
0

> <PUBCHEM_BOND_UDEF_STEREO_COUNT>
0

> <PUBCHEM_ISOTOPIC_ATOM_COUNT>
0

> <PUBCHEM_COMPONENT_COUNT>
1

> <PUBCHEM_CACTVS_TAUTO_COUNT>
1

> <PUBCHEM_CONFORMER_ID>
0000331800000001

> <PUBCHEM_MMFF94_ENERGY>
34.1806

> <PUBCHEM_FEATURE_SELFOVERLAP>
30.449

> <PUBCHEM_SHAPE_FINGERPRINT>
10378564 45 17749381624470250596
10498660 4 18260828172402693936
10912923 1 18336549408563140315
11128504 68 16950283988089213477
114674 6 11887412329664801928
11595378 159 16486699176929611341
12596602 18 15554439683024269917
12616999 72 17894348907945112766
12633257 1 16271931446058529252
12730499 353 18335128778719817626
13533116 47 17774726488719817779
13675066 3 11887956532016520095
13955234 65 18201721811923215522
1420 369 10447932775704759765
14251732 16 18411978028200880931
14251764 30 13840269144230850623
14251764 75 17699546070610198476
14341114 328 16845574167260976500
14528608 73 18260832587971738253
146900 427 18335413574164697419
14774955 27 18342459205498787517
14863182 85 11671780494750231656
15142526 21 18129101117507361616
15210252 30 18410570652795945816
15239154 128 18334858337882959265
15342168 16 18272087150059392684
15885798 251 9439410128884276199
17834072 33 18260269646755938079
17868525 174 17553497168071412016
20369508 70 5906047019958251398
20388580 30 7853576820536366482
212847 35 18409449193884280044
21652331 79 18408887347590105117
221357 26 17748820834753802312
22224240 67 11671490142307994804
22289505 5 18040712597700664700
23016692 55 10159707940561922784
23253445 4 13614241434748876428
23402655 69 17967530151711771844
23559900 14 17898010380935450287
23590187 302 17240482511560902024
2637199 183 18187356628197311022
270888 7 18197777700890896668
300161 21 18272938237021786103
3060560 45 17675922114678952078
32948 21 5328471367080128627
34797466 226 17749383755090495013
427121 178 17060337422912851034
449060 62 18413107268774491814
474 4 18130783421647484180
4990 188 17530677710659565550
5104073 3 18343017839700958923
5281201 14 17313656152581839260
5312625 73 18187645756890074011
5374978 207 14620797102084887765
542803 24 18408320004079890127
633830 44 18334018289049839711
6442390 28 18270397192314343834
7808743 9 18124877859418183260
8988823 20 13973681685483891239
90127 26 18339068393786248323
960060 61 6050443742871217816

> <PUBCHEM_SHAPE_MULTIPOLES>
333.13
13.24
2.01
1.03
14.96
0.08
0.07
-5.9
-1.61
-1.51
0.33
-1.11
0.06
-0.38

> <PUBCHEM_SHAPE_SELFOVERLAP>
680.837

> <PUBCHEM_SHAPE_VOLUME>
194.3

> <PUBCHEM_COORDINATE_TYPE>
2
5
10

$$$$

