13938
  -OEChem-06241222412D

 40 39  0     0  0  0  0  0  0999 V2000
    3.5680    4.6200    0.0000 S   0  0  0  0  0  0  0  0  0  0  0  0
    0.5369    8.9300    0.0000 S   0  0  0  0  0  0  0  0  0  0  0  0
    3.5680    5.6200    0.0000 O   0  0  0  0  0  0  0  0  0  0  0  0
    5.7331    7.9300    0.0000 O   0  0  0  0  0  0  0  0  0  0  0  0
    4.5680    4.6200    0.0000 O   0  0  0  0  0  0  0  0  0  0  0  0
    2.5680    4.6200    0.0000 O   0  0  0  0  0  0  0  0  0  0  0  0
    3.1350    9.4300    0.0000 N   0  0  0  0  0  0  0  0  0  0  0  0
    6.5991    9.4300    0.0000 N   0  0  0  0  0  0  0  0  0  0  0  0
    4.0010    8.9300    0.0000 C   0  0  0  0  0  0  0  0  0  0  0  0
    2.2690    8.9300    0.0000 C   0  0  0  0  0  0  0  0  0  0  0  0
    4.8671    9.4300    0.0000 C   0  0  0  0  0  0  0  0  0  0  0  0
    1.4030    9.4300    0.0000 C   0  0  0  0  0  0  0  0  0  0  0  0
    3.5680    3.6200    0.0000 C   0  0  0  0  0  0  0  0  0  0  0  0
    3.5680    1.6200    0.0000 C   0  0  0  0  0  0  0  0  0  0  0  0
    2.7020    3.1200    0.0000 C   0  0  0  0  0  0  0  0  0  0  0  0
    4.4340    3.1200    0.0000 C   0  0  0  0  0  0  0  0  0  0  0  0
    2.7020    2.1200    0.0000 C   0  0  0  0  0  0  0  0  0  0  0  0
    4.4340    2.1200    0.0000 C   0  0  0  0  0  0  0  0  0  0  0  0
    5.7331    8.9300    0.0000 C   0  0  0  0  0  0  0  0  0  0  0  0
    3.5680    0.6200    0.0000 C   0  0  0  0  0  0  0  0  0  0  0  0
    3.6025    8.4550    0.0000 H   0  0  0  0  0  0  0  0  0  0  0  0
    4.3996    8.4550    0.0000 H   0  0  0  0  0  0  0  0  0  0  0  0
    1.8705    8.4550    0.0000 H   0  0  0  0  0  0  0  0  0  0  0  0
    2.6675    8.4550    0.0000 H   0  0  0  0  0  0  0  0  0  0  0  0
    5.2656    9.9050    0.0000 H   0  0  0  0  0  0  0  0  0  0  0  0
    4.4685    9.9050    0.0000 H   0  0  0  0  0  0  0  0  0  0  0  0
    3.1350   10.0500    0.0000 H   0  0  0  0  0  0  0  0  0  0  0  0
    1.8015    9.9050    0.0000 H   0  0  0  0  0  0  0  0  0  0  0  0
    1.0044    9.9050    0.0000 H   0  0  0  0  0  0  0  0  0  0  0  0
    2.1651    3.4300    0.0000 H   0  0  0  0  0  0  0  0  0  0  0  0
    4.9710    3.4300    0.0000 H   0  0  0  0  0  0  0  0  0  0  0  0
    2.1651    1.8100    0.0000 H   0  0  0  0  0  0  0  0  0  0  0  0
    4.9710    1.8100    0.0000 H   0  0  0  0  0  0  0  0  0  0  0  0
    2.9480    0.6200    0.0000 H   0  0  0  0  0  0  0  0  0  0  0  0
    3.5680    0.0000    0.0000 H   0  0  0  0  0  0  0  0  0  0  0  0
    4.1880    0.6200    0.0000 H   0  0  0  0  0  0  0  0  0  0  0  0
    0.0000    9.2400    0.0000 H   0  0  0  0  0  0  0  0  0  0  0  0
    7.1360    9.1200    0.0000 H   0  0  0  0  0  0  0  0  0  0  0  0
    6.5991   10.0500    0.0000 H   0  0  0  0  0  0  0  0  0  0  0  0
    4.1050    5.9300    0.0000 H   0  0  0  0  0  0  0  0  0  0  0  0
  1  3  1  0  0  0  0
  1  5  2  0  0  0  0
  1  6  2  0  0  0  0
  1 13  1  0  0  0  0
  2 12  1  0  0  0  0
  2 37  1  0  0  0  0
  3 40  1  0  0  0  0
  4 19  2  0  0  0  0
  7  9  1  0  0  0  0
  7 10  1  0  0  0  0
  7 27  1  0  0  0  0
  8 19  1  0  0  0  0
  8 38  1  0  0  0  0
  8 39  1  0  0  0  0
  9 11  1  0  0  0  0
  9 21  1  0  0  0  0
  9 22  1  0  0  0  0
 10 12  1  0  0  0  0
 10 23  1  0  0  0  0
 10 24  1  0  0  0  0
 11 19  1  0  0  0  0
 11 25  1  0  0  0  0
 11 26  1  0  0  0  0
 12 28  1  0  0  0  0
 12 29  1  0  0  0  0
 13 15  2  0  0  0  0
 13 16  1  0  0  0  0
 14 17  2  0  0  0  0
 14 18  1  0  0  0  0
 14 20  1  0  0  0  0
 15 17  1  0  0  0  0
 15 30  1  0  0  0  0
 16 18  2  0  0  0  0
 16 31  1  0  0  0  0
 17 32  1  0  0  0  0
 18 33  1  0  0  0  0
 20 34  1  0  0  0  0
 20 35  1  0  0  0  0
 20 36  1  0  0  0  0
M  END
> <PUBCHEM_COMPOUND_CID>
13938

> <PUBCHEM_COMPOUND_CANONICALIZED>
1

> <PUBCHEM_CACTVS_COMPLEXITY>
293

> <PUBCHEM_CACTVS_HBOND_ACCEPTOR>
6

> <PUBCHEM_CACTVS_HBOND_DONOR>
4

> <PUBCHEM_CACTVS_ROTATABLE_BOND>
6

> <PUBCHEM_CACTVS_SUBSKEYS>
AAADceBzOABgAAAAAAAAAAAAAAAAAAAAAAAwAAAAAAAAAAABAAAAHgQQCAAADADF2ASyAYLAAIaIAiFSEHBCAEAgAAAIiJkIAIgIICqAURCEIAAgkACIiAcAgAAOEAAAAAAAAAAgAAAAAAAAAAAAAAAAAA==

> <PUBCHEM_IUPAC_OPENEYE_NAME>
4-methylbenzenesulfonic acid; 3-(2-sulfanylethylamino)propanamide

> <PUBCHEM_IUPAC_CAS_NAME>
3-(2-mercaptoethylamino)propanamide; 4-methylbenzenesulfonic acid

> <PUBCHEM_IUPAC_NAME>
4-methylbenzenesulfonic acid; 3-(2-sulfanylethylamino)propanamide

> <PUBCHEM_IUPAC_SYSTEMATIC_NAME>
4-methylbenzenesulfonic acid; 3-(2-sulfanylethylamino)propanamide

> <PUBCHEM_IUPAC_TRADITIONAL_NAME>
3-(2-mercaptoethylamino)propionamide; tosylic acid

> <PUBCHEM_IUPAC_INCHI>
InChI=1S/C7H8O3S.C5H12N2OS/c1-6-2-4-7(5-3-6)11(8,9)10;6-5(8)1-2-7-3-4-9/h2-5H,1H3,(H,8,9,10);7,9H,1-4H2,(H2,6,8)

> <PUBCHEM_IUPAC_INCHIKEY>
VKWZCEGDRJOLKT-UHFFFAOYSA-N

> <PUBCHEM_EXACT_MASS>
320.086449

> <PUBCHEM_MOLECULAR_FORMULA>
C12H20N2O4S2

> <PUBCHEM_MOLECULAR_WEIGHT>
320.4282

> <PUBCHEM_OPENEYE_CAN_SMILES>
CC1=CC=C(C=C1)S(=O)(=O)O.C(CNCCS)C(=O)N

> <PUBCHEM_OPENEYE_ISO_SMILES>
CC1=CC=C(C=C1)S(=O)(=O)O.C(CNCCS)C(=O)N

> <PUBCHEM_CACTVS_TPSA>
119

> <PUBCHEM_MONOISOTOPIC_WEIGHT>
320.086449

> <PUBCHEM_TOTAL_CHARGE>
0

> <PUBCHEM_HEAVY_ATOM_COUNT>
20

> <PUBCHEM_ATOM_DEF_STEREO_COUNT>
0

> <PUBCHEM_ATOM_UDEF_STEREO_COUNT>
0

> <PUBCHEM_BOND_DEF_STEREO_COUNT>
0

> <PUBCHEM_BOND_UDEF_STEREO_COUNT>
0

> <PUBCHEM_ISOTOPIC_ATOM_COUNT>
0

> <PUBCHEM_COMPONENT_COUNT>
2

> <PUBCHEM_CACTVS_TAUTO_COUNT>
3

> <PUBCHEM_COORDINATE_TYPE>
1
5
255

> <PUBCHEM_BONDANNOTATIONS>
13  15  8
13  16  8
14  17  8
14  18  8
15  17  8
16  18  8

$$$$

