13846
  -OEChem-06241222402D

 32 30  0     0  0  0  0  0  0999 V2000
    0.0000    1.0000    0.0000 Na  0  3  0  0  0  0  0  0  0  0  0  0
    0.8660    1.5000    0.0000 O   0  5  0  0  0  0  0  0  0  0  0  0
    1.7321    0.0000    0.0000 O   0  0  0  0  0  0  0  0  0  0  0  0
    6.0622    1.5000    0.0000 C   0  0  0  0  0  0  0  0  0  0  0  0
    5.1962    1.0000    0.0000 C   0  0  0  0  0  0  0  0  0  0  0  0
    6.9282    1.0000    0.0000 C   0  0  0  0  0  0  0  0  0  0  0  0
    4.3301    1.5000    0.0000 C   0  0  0  0  0  0  0  0  0  0  0  0
    7.7942    1.5000    0.0000 C   0  0  0  0  0  0  0  0  0  0  0  0
    3.4641    1.0000    0.0000 C   0  0  0  0  0  0  0  0  0  0  0  0
    8.6603    1.0000    0.0000 C   0  0  0  0  0  0  0  0  0  0  0  0
    2.5981    1.5000    0.0000 C   0  0  0  0  0  0  0  0  0  0  0  0
    9.5263    1.5000    0.0000 C   0  0  0  0  0  0  0  0  0  0  0  0
    1.7321    1.0000    0.0000 C   0  0  0  0  0  0  0  0  0  0  0  0
    6.4607    1.9749    0.0000 H   0  0  0  0  0  0  0  0  0  0  0  0
    5.6636    1.9749    0.0000 H   0  0  0  0  0  0  0  0  0  0  0  0
    4.7976    0.5251    0.0000 H   0  0  0  0  0  0  0  0  0  0  0  0
    5.5947    0.5251    0.0000 H   0  0  0  0  0  0  0  0  0  0  0  0
    7.3267    0.5251    0.0000 H   0  0  0  0  0  0  0  0  0  0  0  0
    6.5297    0.5251    0.0000 H   0  0  0  0  0  0  0  0  0  0  0  0
    4.7287    1.9749    0.0000 H   0  0  0  0  0  0  0  0  0  0  0  0
    3.9316    1.9749    0.0000 H   0  0  0  0  0  0  0  0  0  0  0  0
    7.3957    1.9749    0.0000 H   0  0  0  0  0  0  0  0  0  0  0  0
    8.1928    1.9749    0.0000 H   0  0  0  0  0  0  0  0  0  0  0  0
    3.8626    0.5251    0.0000 H   0  0  0  0  0  0  0  0  0  0  0  0
    3.0656    0.5251    0.0000 H   0  0  0  0  0  0  0  0  0  0  0  0
    8.2617    0.5251    0.0000 H   0  0  0  0  0  0  0  0  0  0  0  0
    9.0588    0.5251    0.0000 H   0  0  0  0  0  0  0  0  0  0  0  0
    2.1995    1.9749    0.0000 H   0  0  0  0  0  0  0  0  0  0  0  0
    2.9966    1.9749    0.0000 H   0  0  0  0  0  0  0  0  0  0  0  0
    9.8363    0.9631    0.0000 H   0  0  0  0  0  0  0  0  0  0  0  0
   10.0632    1.8100    0.0000 H   0  0  0  0  0  0  0  0  0  0  0  0
    9.2163    2.0369    0.0000 H   0  0  0  0  0  0  0  0  0  0  0  0
  2 13  1  0  0  0  0
  3 13  2  0  0  0  0
  4  5  1  0  0  0  0
  4  6  1  0  0  0  0
  4 14  1  0  0  0  0
  4 15  1  0  0  0  0
  5  7  1  0  0  0  0
  5 16  1  0  0  0  0
  5 17  1  0  0  0  0
  6  8  1  0  0  0  0
  6 18  1  0  0  0  0
  6 19  1  0  0  0  0
  7  9  1  0  0  0  0
  7 20  1  0  0  0  0
  7 21  1  0  0  0  0
  8 10  1  0  0  0  0
  8 22  1  0  0  0  0
  8 23  1  0  0  0  0
  9 11  1  0  0  0  0
  9 24  1  0  0  0  0
  9 25  1  0  0  0  0
 10 12  1  0  0  0  0
 10 26  1  0  0  0  0
 10 27  1  0  0  0  0
 11 13  1  0  0  0  0
 11 28  1  0  0  0  0
 11 29  1  0  0  0  0
 12 30  1  0  0  0  0
 12 31  1  0  0  0  0
 12 32  1  0  0  0  0
M  CHG  2   1   1   2  -1
M  END
> <PUBCHEM_COMPOUND_CID>
13846

> <PUBCHEM_COMPOUND_CANONICALIZED>
1

> <PUBCHEM_CACTVS_COMPLEXITY>
105

> <PUBCHEM_CACTVS_HBOND_ACCEPTOR>
2

> <PUBCHEM_CACTVS_HBOND_DONOR>
0

> <PUBCHEM_CACTVS_ROTATABLE_BOND>
7

> <PUBCHEM_CACTVS_SUBSKEYS>
AAADceBwMCAAAAAAAAAAAAAAAAAAAAAAAAAAAAAAAAAAAAAAAAAAGgAAAAAACACAgAACCAAAAAAIAACQCAAAAAAAAAAAAAEAAAAAABIAAAAAAAAEAAAAAAGIyKCAAAAAAAAAAAAAAAAAAAAAAAAAAAAAAA==

> <PUBCHEM_IUPAC_OPENEYE_NAME>
sodium decanoate

> <PUBCHEM_IUPAC_CAS_NAME>
sodium decanoate

> <PUBCHEM_IUPAC_NAME>
sodium decanoate

> <PUBCHEM_IUPAC_SYSTEMATIC_NAME>
sodium decanoate

> <PUBCHEM_IUPAC_TRADITIONAL_NAME>
sodium caprate

> <PUBCHEM_IUPAC_INCHI>
InChI=1S/C10H20O2.Na/c1-2-3-4-5-6-7-8-9-10(11)12;/h2-9H2,1H3,(H,11,12);/q;+1/p-1

> <PUBCHEM_IUPAC_INCHIKEY>
FIWQZURFGYXCEO-UHFFFAOYSA-M

> <PUBCHEM_EXACT_MASS>
194.128274

> <PUBCHEM_MOLECULAR_FORMULA>
C10H19NaO2

> <PUBCHEM_MOLECULAR_WEIGHT>
194.246429

> <PUBCHEM_OPENEYE_CAN_SMILES>
CCCCCCCCCC(=O)[O-].[Na+]

> <PUBCHEM_OPENEYE_ISO_SMILES>
CCCCCCCCCC(=O)[O-].[Na+]

> <PUBCHEM_CACTVS_TPSA>
40.1

> <PUBCHEM_MONOISOTOPIC_WEIGHT>
194.128274

> <PUBCHEM_TOTAL_CHARGE>
0

> <PUBCHEM_HEAVY_ATOM_COUNT>
13

> <PUBCHEM_ATOM_DEF_STEREO_COUNT>
0

> <PUBCHEM_ATOM_UDEF_STEREO_COUNT>
0

> <PUBCHEM_BOND_DEF_STEREO_COUNT>
0

> <PUBCHEM_BOND_UDEF_STEREO_COUNT>
0

> <PUBCHEM_ISOTOPIC_ATOM_COUNT>
0

> <PUBCHEM_COMPONENT_COUNT>
2

> <PUBCHEM_CACTVS_TAUTO_COUNT>
1

> <PUBCHEM_COORDINATE_TYPE>
1
5
255

$$$$

