9109
  -OEChem-06261203253D

 31 35  0     0  0  0  0  0  0999 V2000
   -4.4667   -0.5860    0.0004 N   0  0  0  0  0  0  0  0  0  0  0  0
   -0.3011    0.2106   -0.0004 C   0  0  0  0  0  0  0  0  0  0  0  0
   -1.6976   -0.0540   -0.0002 C   0  0  0  0  0  0  0  0  0  0  0  0
    0.6413   -0.8523   -0.0003 C   0  0  0  0  0  0  0  0  0  0  0  0
    0.1341    1.5536   -0.0003 C   0  0  0  0  0  0  0  0  0  0  0  0
    2.0463   -0.5472   -0.0002 C   0  0  0  0  0  0  0  0  0  0  0  0
   -2.1693   -1.3777   -0.0001 C   0  0  0  0  0  0  0  0  0  0  0  0
   -2.6293    1.0041    0.0000 C   0  0  0  0  0  0  0  0  0  0  0  0
    2.4586    0.8092   -0.0001 C   0  0  0  0  0  0  0  0  0  0  0  0
    1.5036    1.8320   -0.0001 C   0  0  0  0  0  0  0  0  0  0  0  0
    0.1196   -2.1686   -0.0001 C   0  0  0  0  0  0  0  0  0  0  0  0
   -0.8068    2.5951   -0.0001 C   0  0  0  0  0  0  0  0  0  0  0  0
   -1.2534   -2.4300   -0.0002 C   0  0  0  0  0  0  0  0  0  0  0  0
   -2.1744    2.3264    0.0000 C   0  0  0  0  0  0  0  0  0  0  0  0
    3.0739   -1.5246    0.0000 C   0  0  0  0  0  0  0  0  0  0  0  0
   -3.5505   -1.5787    0.0003 C   0  0  0  0  0  0  0  0  0  0  0  0
    3.8248    1.1406    0.0003 C   0  0  0  0  0  0  0  0  0  0  0  0
   -3.9858    0.6764    0.0003 C   0  0  0  0  0  0  0  0  0  0  0  0
    4.4285   -1.1814    0.0001 C   0  0  0  0  0  0  0  0  0  0  0  0
    4.8042    0.1524    0.0005 C   0  0  0  0  0  0  0  0  0  0  0  0
    1.8340    2.8713    0.0000 H   0  0  0  0  0  0  0  0  0  0  0  0
    0.7779   -3.0337    0.0000 H   0  0  0  0  0  0  0  0  0  0  0  0
   -0.4815    3.6338   -0.0001 H   0  0  0  0  0  0  0  0  0  0  0  0
   -1.5934   -3.4631   -0.0001 H   0  0  0  0  0  0  0  0  0  0  0  0
   -2.8768    3.1565    0.0002 H   0  0  0  0  0  0  0  0  0  0  0  0
    2.8402   -2.5861   -0.0001 H   0  0  0  0  0  0  0  0  0  0  0  0
   -3.9746   -2.5791    0.0004 H   0  0  0  0  0  0  0  0  0  0  0  0
    4.1411    2.1823    0.0006 H   0  0  0  0  0  0  0  0  0  0  0  0
   -4.7519    1.4469    0.0006 H   0  0  0  0  0  0  0  0  0  0  0  0
    5.1849   -1.9608    0.0002 H   0  0  0  0  0  0  0  0  0  0  0  0
    5.8550    0.4253    0.0008 H   0  0  0  0  0  0  0  0  0  0  0  0
  1 16  2  0  0  0  0
  1 18  1  0  0  0  0
  2  3  1  0  0  0  0
  2  4  2  0  0  0  0
  2  5  1  0  0  0  0
  3  7  2  0  0  0  0
  3  8  1  0  0  0  0
  4  6  1  0  0  0  0
  4 11  1  0  0  0  0
  5 10  2  0  0  0  0
  5 12  1  0  0  0  0
  6  9  1  0  0  0  0
  6 15  2  0  0  0  0
  7 13  1  0  0  0  0
  7 16  1  0  0  0  0
  8 14  1  0  0  0  0
  8 18  2  0  0  0  0
  9 10  1  0  0  0  0
  9 17  2  0  0  0  0
 10 21  1  0  0  0  0
 11 13  2  0  0  0  0
 11 22  1  0  0  0  0
 12 14  2  0  0  0  0
 12 23  1  0  0  0  0
 13 24  1  0  0  0  0
 14 25  1  0  0  0  0
 15 19  1  0  0  0  0
 15 26  1  0  0  0  0
 16 27  1  0  0  0  0
 17 20  1  0  0  0  0
 17 28  1  0  0  0  0
 18 29  1  0  0  0  0
 19 20  2  0  0  0  0
 19 30  1  0  0  0  0
 20 31  1  0  0  0  0
M  END
> <PUBCHEM_COMPOUND_CID>
9109

> <PUBCHEM_CONFORMER_RMSD>
0.6

> <PUBCHEM_CONFORMER_DIVERSEORDER>
1

> <PUBCHEM_MMFF94_PARTIAL_CHARGES>
23
1 -0.62
10 -0.15
11 -0.15
12 -0.15
13 -0.15
14 -0.15
15 -0.15
16 0.16
17 -0.15
18 0.16
19 -0.15
20 -0.15
21 0.15
22 0.15
23 0.15
24 0.15
25 0.15
26 0.15
27 0.15
28 0.15
29 0.15
30 0.15
31 0.15

> <PUBCHEM_EFFECTIVE_ROTOR_COUNT>
0

> <PUBCHEM_PHARMACOPHORE_FEATURES>
6
1 1 acceptor
6 1 3 7 8 16 18 rings
6 2 3 4 7 11 13 rings
6 2 3 5 8 12 14 rings
6 2 4 5 6 9 10 rings
6 6 9 15 17 19 20 rings

> <PUBCHEM_HEAVY_ATOM_COUNT>
20

> <PUBCHEM_ATOM_DEF_STEREO_COUNT>
0

> <PUBCHEM_ATOM_UDEF_STEREO_COUNT>
0

> <PUBCHEM_BOND_DEF_STEREO_COUNT>
0

> <PUBCHEM_BOND_UDEF_STEREO_COUNT>
0

> <PUBCHEM_ISOTOPIC_ATOM_COUNT>
0

> <PUBCHEM_COMPONENT_COUNT>
1

> <PUBCHEM_CACTVS_TAUTO_COUNT>
1

> <PUBCHEM_CONFORMER_ID>
0000239500000001

> <PUBCHEM_MMFF94_ENERGY>
74.1592

> <PUBCHEM_FEATURE_SELFOVERLAP>
30.6

> <PUBCHEM_SHAPE_FINGERPRINT>
10319926 262 18191893256882837402
10411042 1 18050567344232348835
10493431 412 18118393188877267609
10616163 171 18409727357283235894
10693767 8 18043272192409873703
10759866 29 18130497566426422534
10967382 1 18410855425768429925
11132069 177 18409171016988785224
11458722 379 18412261757043690446
11578080 2 17488210173870755340
11680986 33 18122628241062346929
12011746 2 18410294717867078253
12236239 1 17775286075871646482
12403259 226 18408891732445772264
12403814 3 17632580456880274357
12553582 1 18337959973990111902
13140716 1 18338228267986420115
13221675 6 18411420604873317842
13583140 156 14345789487086733494
138480 1 15600328213036723297
13862211 1 18410579465841392447
14790565 3 18265606753301638217
15042514 8 18339358557113157203
15196674 1 18410855464428449317
15442244 35 18339926034315062162
15536298 74 18335139778436465656
16752209 62 18339934795473131712
16945 1 18194401091432035533
17492 89 18339924930224345146
17804303 29 18408319973551181104
1813 80 17418095399472027476
19141452 34 18186800240975302831
19591789 44 18338797939331823546
200 152 18041005029302075045
20028762 73 18042684993023898871
20510252 161 18333731359549078520
20775438 99 16600453250070622519
20905425 154 18119809363594629902
21029758 11 18335144167856307289
21029758 27 18272362032398447061
21267235 1 18411128130490851210
221490 88 18197773306431671970
2334 1 18338516326968582117
23402539 116 18334584529153892455
23463225 33 18412262817884690932
23557571 272 18260257577945250684
23559900 14 18335143060124302504
238 59 16331636366292856093
2748010 2 18338520742274181189
2871803 45 18341618130600623325
335352 9 18338799038642712341
34934 24 18337959969948371666
350125 39 18411133658050665536
4214541 1 18410574032776087908
43471831 8 18270402827000174122
474 4 17202474508235198892
5104073 3 18410011043840758392
69090 78 18408044013259698534
7097593 13 17482848052988039666
8809292 202 18342736291050453091
9709674 26 18408316709692820326

> <PUBCHEM_SHAPE_MULTIPOLES>
406.61
7.94
2.71
0.61
3.33
0.25
0
-1.02
0
-0.93
0
0.02
0
0

> <PUBCHEM_SHAPE_SELFOVERLAP>
960.229

> <PUBCHEM_SHAPE_VOLUME>
201.4

> <PUBCHEM_COORDINATE_TYPE>
2
5
10

$$$$

