12767
  -OEChem-06261207202D

 10 10  0     0  0  0  0  0  0999 V2000
    3.7071    1.5000    0.0000 F   0  0  0  0  0  0  0  0  0  0  0  0
    4.7071    0.5000    0.0000 F   0  0  0  0  0  0  0  0  0  0  0  0
    3.7071   -1.5000    0.0000 F   0  0  0  0  0  0  0  0  0  0  0  0
    4.7071   -0.5000    0.0000 F   0  0  0  0  0  0  0  0  0  0  0  0
    2.0000    1.2071    0.0000 F   0  0  0  0  0  0  0  0  0  0  0  0
    2.0000   -1.2071    0.0000 F   0  0  0  0  0  0  0  0  0  0  0  0
    3.7071    0.5000    0.0000 C   0  0  0  0  0  0  0  0  0  0  0  0
    3.7071   -0.5000    0.0000 C   0  0  0  0  0  0  0  0  0  0  0  0
    2.7071    0.5000    0.0000 C   0  0  0  0  0  0  0  0  0  0  0  0
    2.7071   -0.5000    0.0000 C   0  0  0  0  0  0  0  0  0  0  0  0
  1  7  1  0  0  0  0
  2  7  1  0  0  0  0
  3  8  1  0  0  0  0
  4  8  1  0  0  0  0
  5  9  1  0  0  0  0
  6 10  1  0  0  0  0
  7  8  1  0  0  0  0
  7  9  1  0  0  0  0
  8 10  1  0  0  0  0
  9 10  2  0  0  0  0
M  END
> <PUBCHEM_COMPOUND_CID>
12767

> <PUBCHEM_COMPOUND_CANONICALIZED>
1

> <PUBCHEM_CACTVS_COMPLEXITY>
180

> <PUBCHEM_CACTVS_HBOND_ACCEPTOR>
6

> <PUBCHEM_CACTVS_HBOND_DONOR>
0

> <PUBCHEM_CACTVS_ROTATABLE_BOND>
0

> <PUBCHEM_CACTVS_SUBSKEYS>
AAADcQBgAcAAAAAAAAAAAAAAAABAAAAAAAAAAAAAAAAAAAAAAAAACQAAAAAACAAAABAAAAAAAACAAABAAAAAAAAgAAAACAAAAAgAAAAAAAAAAAAAAAAAAAAAAAAAAAAAAAAAAAAAAAAAAAAAAAAAAAAAAA==

> <PUBCHEM_IUPAC_OPENEYE_NAME>
1,2,3,3,4,4-hexafluorocyclobutene

> <PUBCHEM_IUPAC_CAS_NAME>
1,2,3,3,4,4-hexafluorocyclobutene

> <PUBCHEM_IUPAC_NAME>
1,2,3,3,4,4-hexafluorocyclobutene

> <PUBCHEM_IUPAC_SYSTEMATIC_NAME>
1,2,3,3,4,4-hexakis(fluoranyl)cyclobutene

> <PUBCHEM_IUPAC_TRADITIONAL_NAME>
1,2,3,3,4,4-hexafluorocyclobutene

> <PUBCHEM_IUPAC_INCHI>
InChI=1S/C4F6/c5-1-2(6)4(9,10)3(1,7)8

> <PUBCHEM_IUPAC_INCHIKEY>
QVHWOZCZUNPZPW-UHFFFAOYSA-N

> <PUBCHEM_XLOGP3_AA>
1.4

> <PUBCHEM_EXACT_MASS>
161.990419

> <PUBCHEM_MOLECULAR_FORMULA>
C4F6

> <PUBCHEM_MOLECULAR_WEIGHT>
162.033219

> <PUBCHEM_OPENEYE_CAN_SMILES>
C1(=C(C(C1(F)F)(F)F)F)F

> <PUBCHEM_OPENEYE_ISO_SMILES>
C1(=C(C(C1(F)F)(F)F)F)F

> <PUBCHEM_CACTVS_TPSA>
0

> <PUBCHEM_MONOISOTOPIC_WEIGHT>
161.990419

> <PUBCHEM_TOTAL_CHARGE>
0

> <PUBCHEM_HEAVY_ATOM_COUNT>
10

> <PUBCHEM_ATOM_DEF_STEREO_COUNT>
0

> <PUBCHEM_ATOM_UDEF_STEREO_COUNT>
0

> <PUBCHEM_BOND_DEF_STEREO_COUNT>
0

> <PUBCHEM_BOND_UDEF_STEREO_COUNT>
0

> <PUBCHEM_ISOTOPIC_ATOM_COUNT>
0

> <PUBCHEM_COMPONENT_COUNT>
1

> <PUBCHEM_CACTVS_TAUTO_COUNT>
1

> <PUBCHEM_COORDINATE_TYPE>
1
5
255

$$$$

