17396571
  -OEChem-06241222572D

 43 45  0     1  0  0  0  0  0999 V2000
    7.7331    4.0000    0.0000 F   0  0  0  0  0  0  0  0  0  0  0  0
    2.5369   -2.0000    0.0000 O   0  0  0  0  0  0  0  0  0  0  0  0
    4.2690    1.0000    0.0000 N   0  0  0  0  0  0  0  0  0  0  0  0
    4.2690   -1.0000    0.0000 N   0  0  0  0  0  0  0  0  0  0  0  0
    5.1350    0.5000    0.0000 C   0  0  0  0  0  0  0  0  0  0  0  0
    3.4030    0.5000    0.0000 C   0  0  0  0  0  0  0  0  0  0  0  0
    4.2690    2.0000    0.0000 C   0  0  3  0  0  0  0  0  0  0  0  0
    5.1350   -0.5000    0.0000 C   0  0  0  0  0  0  0  0  0  0  0  0
    3.4030   -0.5000    0.0000 C   0  0  0  0  0  0  0  0  0  0  0  0
    5.1350    2.5000    0.0000 C   0  0  0  0  0  0  0  0  0  0  0  0
    4.2690   -2.0000    0.0000 C   0  0  0  0  0  0  0  0  0  0  0  0
    3.4030    2.5000    0.0000 C   0  0  0  0  0  0  0  0  0  0  0  0
    6.0010    2.0000    0.0000 C   0  0  0  0  0  0  0  0  0  0  0  0
    5.1350    3.5000    0.0000 C   0  0  0  0  0  0  0  0  0  0  0  0
    3.4030   -2.5000    0.0000 C   0  0  0  0  0  0  0  0  0  0  0  0
    5.1350   -2.5000    0.0000 C   0  0  0  0  0  0  0  0  0  0  0  0
    6.8671    2.5000    0.0000 C   0  0  0  0  0  0  0  0  0  0  0  0
    6.0010    4.0000    0.0000 C   0  0  0  0  0  0  0  0  0  0  0  0
    3.4030   -3.5000    0.0000 C   0  0  0  0  0  0  0  0  0  0  0  0
    5.1350   -3.5000    0.0000 C   0  0  0  0  0  0  0  0  0  0  0  0
    6.8671    3.5000    0.0000 C   0  0  0  0  0  0  0  0  0  0  0  0
    4.2690   -4.0000    0.0000 C   0  0  0  0  0  0  0  0  0  0  0  0
    3.1909    1.0826    0.0000 H   0  0  0  0  0  0  0  0  0  0  0  0
    2.7924    0.3923    0.0000 H   0  0  0  0  0  0  0  0  0  0  0  0
    5.7456    0.3923    0.0000 H   0  0  0  0  0  0  0  0  0  0  0  0
    5.3471    1.0826    0.0000 H   0  0  0  0  0  0  0  0  0  0  0  0
    3.7320    1.6900    0.0000 H   0  0  0  0  0  0  0  0  0  0  0  0
    2.7924   -0.3923    0.0000 H   0  0  0  0  0  0  0  0  0  0  0  0
    3.1909   -1.0826    0.0000 H   0  0  0  0  0  0  0  0  0  0  0  0
    5.3471   -1.0826    0.0000 H   0  0  0  0  0  0  0  0  0  0  0  0
    5.7456   -0.3923    0.0000 H   0  0  0  0  0  0  0  0  0  0  0  0
    3.7130    3.0369    0.0000 H   0  0  0  0  0  0  0  0  0  0  0  0
    2.8660    2.8100    0.0000 H   0  0  0  0  0  0  0  0  0  0  0  0
    3.0930    1.9631    0.0000 H   0  0  0  0  0  0  0  0  0  0  0  0
    6.0010    1.3800    0.0000 H   0  0  0  0  0  0  0  0  0  0  0  0
    4.5981    3.8100    0.0000 H   0  0  0  0  0  0  0  0  0  0  0  0
    5.6720   -2.1900    0.0000 H   0  0  0  0  0  0  0  0  0  0  0  0
    7.4040    2.1900    0.0000 H   0  0  0  0  0  0  0  0  0  0  0  0
    6.0010    4.6200    0.0000 H   0  0  0  0  0  0  0  0  0  0  0  0
    2.8660   -3.8100    0.0000 H   0  0  0  0  0  0  0  0  0  0  0  0
    5.6720   -3.8100    0.0000 H   0  0  0  0  0  0  0  0  0  0  0  0
    4.2690   -4.6200    0.0000 H   0  0  0  0  0  0  0  0  0  0  0  0
    2.0000   -2.3100    0.0000 H   0  0  0  0  0  0  0  0  0  0  0  0
  1 21  1  0  0  0  0
  2 15  1  0  0  0  0
  2 43  1  0  0  0  0
  3  5  1  0  0  0  0
  3  6  1  0  0  0  0
  3  7  1  0  0  0  0
  4  8  1  0  0  0  0
  4  9  1  0  0  0  0
  4 11  1  0  0  0  0
  5  8  1  0  0  0  0
  5 25  1  0  0  0  0
  5 26  1  0  0  0  0
  6  9  1  0  0  0  0
  6 23  1  0  0  0  0
  6 24  1  0  0  0  0
  7 10  1  0  0  0  0
  7 12  1  0  0  0  0
  7 27  1  0  0  0  0
  8 30  1  0  0  0  0
  8 31  1  0  0  0  0
  9 28  1  0  0  0  0
  9 29  1  0  0  0  0
 10 13  2  0  0  0  0
 10 14  1  0  0  0  0
 11 15  1  0  0  0  0
 11 16  2  0  0  0  0
 12 32  1  0  0  0  0
 12 33  1  0  0  0  0
 12 34  1  0  0  0  0
 13 17  1  0  0  0  0
 13 35  1  0  0  0  0
 14 18  2  0  0  0  0
 14 36  1  0  0  0  0
 15 19  2  0  0  0  0
 16 20  1  0  0  0  0
 16 37  1  0  0  0  0
 17 21  2  0  0  0  0
 17 38  1  0  0  0  0
 18 21  1  0  0  0  0
 18 39  1  0  0  0  0
 19 22  1  0  0  0  0
 19 40  1  0  0  0  0
 20 22  2  0  0  0  0
 20 41  1  0  0  0  0
 22 42  1  0  0  0  0
M  END
> <PUBCHEM_COMPOUND_CID>
17396571

> <PUBCHEM_COMPOUND_CANONICALIZED>
1

> <PUBCHEM_CACTVS_COMPLEXITY>
338

> <PUBCHEM_CACTVS_HBOND_ACCEPTOR>
4

> <PUBCHEM_CACTVS_HBOND_DONOR>
1

> <PUBCHEM_CACTVS_ROTATABLE_BOND>
3

> <PUBCHEM_CACTVS_SUBSKEYS>
AAADceB7IQAAAAAAAAAAAAAAAAAAAAAAAAA8YIAAAAAAAAABQAAAHwAACAAADCzBmAwyxoMAAgCAAiRCQACCAAAhIgAIiAAPbIgKZiLSkZOUcAhkwBHY2AeQwIAOAAAAAAAAEAAAAAAAAAAgAAAAAAAAAA==

> <PUBCHEM_IUPAC_OPENEYE_NAME>
2-[4-[1-(4-fluorophenyl)ethyl]piperazin-1-yl]phenol

> <PUBCHEM_IUPAC_CAS_NAME>
2-[4-[1-(4-fluorophenyl)ethyl]-1-piperazinyl]phenol

> <PUBCHEM_IUPAC_NAME>
2-[4-[1-(4-fluorophenyl)ethyl]piperazin-1-yl]phenol

> <PUBCHEM_IUPAC_SYSTEMATIC_NAME>
2-[4-[1-(4-fluorophenyl)ethyl]piperazin-1-yl]phenol

> <PUBCHEM_IUPAC_TRADITIONAL_NAME>
2-[4-[1-(4-fluorophenyl)ethyl]piperazino]phenol

> <PUBCHEM_IUPAC_INCHI>
InChI=1S/C18H21FN2O/c1-14(15-6-8-16(19)9-7-15)20-10-12-21(13-11-20)17-4-2-3-5-18(17)22/h2-9,14,22H,10-13H2,1H3

> <PUBCHEM_IUPAC_INCHIKEY>
KXHCJHSDBOVGOC-UHFFFAOYSA-N

> <PUBCHEM_XLOGP3_AA>
3.5

> <PUBCHEM_EXACT_MASS>
300.163792

> <PUBCHEM_MOLECULAR_FORMULA>
C18H21FN2O

> <PUBCHEM_MOLECULAR_WEIGHT>
300.370543

> <PUBCHEM_OPENEYE_CAN_SMILES>
CC(C1=CC=C(C=C1)F)N2CCN(CC2)C3=CC=CC=C3O

> <PUBCHEM_OPENEYE_ISO_SMILES>
CC(C1=CC=C(C=C1)F)N2CCN(CC2)C3=CC=CC=C3O

> <PUBCHEM_CACTVS_TPSA>
26.7

> <PUBCHEM_MONOISOTOPIC_WEIGHT>
300.163792

> <PUBCHEM_TOTAL_CHARGE>
0

> <PUBCHEM_HEAVY_ATOM_COUNT>
22

> <PUBCHEM_ATOM_DEF_STEREO_COUNT>
0

> <PUBCHEM_ATOM_UDEF_STEREO_COUNT>
1

> <PUBCHEM_BOND_DEF_STEREO_COUNT>
0

> <PUBCHEM_BOND_UDEF_STEREO_COUNT>
0

> <PUBCHEM_ISOTOPIC_ATOM_COUNT>
0

> <PUBCHEM_COMPONENT_COUNT>
1

> <PUBCHEM_CACTVS_TAUTO_COUNT>
3

> <PUBCHEM_COORDINATE_TYPE>
1
5
255

> <PUBCHEM_BONDANNOTATIONS>
10  13  8
10  14  8
11  15  8
11  16  8
13  17  8
14  18  8
15  19  8
16  20  8
17  21  8
18  21  8
19  22  8
20  22  8
7  12  3

$$$$

