17395938
  -OEChem-06241222533D

 46 48  0     1  0  0  0  0  0999 V2000
   -4.1172   -1.9454    0.0938 S   0  0  0  0  0  0  0  0  0  0  0  0
   -4.9527   -2.3518   -1.0169 O   0  0  0  0  0  0  0  0  0  0  0  0
   -3.7713   -2.8471    1.1729 O   0  0  0  0  0  0  0  0  0  0  0  0
   -0.7558    0.0320    1.4160 O   0  0  0  0  0  0  0  0  0  0  0  0
    1.6588   -0.1591   -0.9037 O   0  0  0  0  0  0  0  0  0  0  0  0
   -1.6060    1.0225   -0.5244 N   0  0  0  0  0  0  0  0  0  0  0  0
   -2.8399    0.2885   -0.4874 C   0  0  1  0  0  0  0  0  0  0  0  0
   -2.6148   -1.2218   -0.5489 C   0  0  0  0  0  0  0  0  0  0  0  0
   -3.6249    0.5456    0.8015 C   0  0  0  0  0  0  0  0  0  0  0  0
   -4.7855   -0.4423    0.7911 C   0  0  0  0  0  0  0  0  0  0  0  0
   -1.4474    1.9630   -1.6388 C   0  0  0  0  0  0  0  0  0  0  0  0
   -0.6396    0.8152    0.4742 C   0  0  0  0  0  0  0  0  0  0  0  0
   -1.9723    3.3386   -1.2828 C   0  0  0  0  0  0  0  0  0  0  0  0
    0.6242    1.5658    0.4038 C   0  0  0  0  0  0  0  0  0  0  0  0
    1.7251    1.0518   -0.2816 C   0  0  0  0  0  0  0  0  0  0  0  0
    0.7128    2.8065    1.0352 C   0  0  0  0  0  0  0  0  0  0  0  0
    2.9145    1.7786   -0.3357 C   0  0  0  0  0  0  0  0  0  0  0  0
    1.9024    3.5332    0.9812 C   0  0  0  0  0  0  0  0  0  0  0  0
    3.0031    3.0192    0.2959 C   0  0  0  0  0  0  0  0  0  0  0  0
    2.5412   -1.1419   -0.4906 C   0  0  0  0  0  0  0  0  0  0  0  0
    2.7498   -1.3650    0.8706 C   0  0  0  0  0  0  0  0  0  0  0  0
    3.2225   -1.9094   -1.4354 C   0  0  0  0  0  0  0  0  0  0  0  0
    3.6398   -2.3550    1.2868 C   0  0  0  0  0  0  0  0  0  0  0  0
    4.1124   -2.8995   -1.0190 C   0  0  0  0  0  0  0  0  0  0  0  0
    4.3210   -3.1224    0.3421 C   0  0  0  0  0  0  0  0  0  0  0  0
   -3.4746    0.5836   -1.3338 H   0  0  0  0  0  0  0  0  0  0  0  0
   -2.4635   -1.5648   -1.5762 H   0  0  0  0  0  0  0  0  0  0  0  0
   -1.7920   -1.5930    0.0644 H   0  0  0  0  0  0  0  0  0  0  0  0
   -3.0351    0.3741    1.7062 H   0  0  0  0  0  0  0  0  0  0  0  0
   -3.9885    1.5777    0.8540 H   0  0  0  0  0  0  0  0  0  0  0  0
   -5.1787   -0.6398    1.7904 H   0  0  0  0  0  0  0  0  0  0  0  0
   -5.5889   -0.0967    0.1340 H   0  0  0  0  0  0  0  0  0  0  0  0
   -1.9581    1.5676   -2.5241 H   0  0  0  0  0  0  0  0  0  0  0  0
   -0.3904    2.0444   -1.9070 H   0  0  0  0  0  0  0  0  0  0  0  0
   -1.8279    4.0270   -2.1214 H   0  0  0  0  0  0  0  0  0  0  0  0
   -1.4716    3.7617   -0.4094 H   0  0  0  0  0  0  0  0  0  0  0  0
   -3.0437    3.3007   -1.0594 H   0  0  0  0  0  0  0  0  0  0  0  0
   -0.1349    3.2138    1.5800 H   0  0  0  0  0  0  0  0  0  0  0  0
    3.7786    1.3987   -0.8742 H   0  0  0  0  0  0  0  0  0  0  0  0
    1.9719    4.4984    1.4741 H   0  0  0  0  0  0  0  0  0  0  0  0
    3.9284    3.5860    0.2523 H   0  0  0  0  0  0  0  0  0  0  0  0
    2.2204   -0.7943    1.6284 H   0  0  0  0  0  0  0  0  0  0  0  0
    3.0641   -1.7396   -2.4968 H   0  0  0  0  0  0  0  0  0  0  0  0
    3.7995   -2.5314    2.3465 H   0  0  0  0  0  0  0  0  0  0  0  0
    4.6428   -3.4971   -1.7546 H   0  0  0  0  0  0  0  0  0  0  0  0
    5.0132   -3.8940    0.6662 H   0  0  0  0  0  0  0  0  0  0  0  0
  1  2  2  0  0  0  0
  1  3  2  0  0  0  0
  1  8  1  0  0  0  0
  1 10  1  0  0  0  0
  4 12  2  0  0  0  0
  5 15  1  0  0  0  0
  5 20  1  0  0  0  0
  6  7  1  0  0  0  0
  6 11  1  0  0  0  0
  6 12  1  0  0  0  0
  7  8  1  0  0  0  0
  7  9  1  0  0  0  0
  7 26  1  0  0  0  0
  8 27  1  0  0  0  0
  8 28  1  0  0  0  0
  9 10  1  0  0  0  0
  9 29  1  0  0  0  0
  9 30  1  0  0  0  0
 10 31  1  0  0  0  0
 10 32  1  0  0  0  0
 11 13  1  0  0  0  0
 11 33  1  0  0  0  0
 11 34  1  0  0  0  0
 12 14  1  0  0  0  0
 13 35  1  0  0  0  0
 13 36  1  0  0  0  0
 13 37  1  0  0  0  0
 14 15  1  0  0  0  0
 14 16  2  0  0  0  0
 15 17  2  0  0  0  0
 16 18  1  0  0  0  0
 16 38  1  0  0  0  0
 17 19  1  0  0  0  0
 17 39  1  0  0  0  0
 18 19  2  0  0  0  0
 18 40  1  0  0  0  0
 19 41  1  0  0  0  0
 20 21  2  0  0  0  0
 20 22  1  0  0  0  0
 21 23  1  0  0  0  0
 21 42  1  0  0  0  0
 22 24  2  0  0  0  0
 22 43  1  0  0  0  0
 23 25  2  0  0  0  0
 23 44  1  0  0  0  0
 24 25  1  0  0  0  0
 24 45  1  0  0  0  0
 25 46  1  0  0  0  0
M  END
> <PUBCHEM_COMPOUND_CID>
17395938

> <PUBCHEM_CONFORMER_RMSD>
0.8

> <PUBCHEM_CONFORMER_DIVERSEORDER>
1
66
86
157
77
199
212
90
129
113
163
177
161
105
40
29
79
179
170
155
151
110
141
112
64
168
172
72
50
125
115
208
133
67
146
97
221
144
195
166
201
197
215
35
107
96
11
182
189
106
140
196
194
71
192
49
171
68
116
53
187
213
180
124
216
219
23
181
111
203
51
174
169
131
193
143
33
205
104
123
145
149
183
31
109
210
160
57
63
10
200
186
22
41
87
148
218
42
55
159
70
83
134
198
154
94
34
158
14
45
17
81
162
122
127
59
108
130
19
164
30
139
13
120
39
147
21
173
24
73
102
95
209
142
27
25
93
176
175
54
206
188
52
114
4
153
152
117
137
75
8
98
32
85
69
56
190
128
7
136
28
44
65
43
92
214
207
58
3
101
46
82
191
156
18
6
91
135
88
60
80
89
167
202
5
184
150
217
62
37
61
20
38
185
138
15
47
74
132
99
78
26
103
100
84
9
119
220
36
126
16
118
12
121
76
165
2
178
48
204
211

> <PUBCHEM_MMFF94_PARTIAL_CHARGES>
32
1 1.09
10 0.11
11 0.3
12 0.54
14 0.09
15 0.08
16 -0.15
17 -0.15
18 -0.15
19 -0.15
2 -0.65
20 0.08
21 -0.15
22 -0.15
23 -0.15
24 -0.15
25 -0.15
3 -0.65
38 0.15
39 0.15
4 -0.57
40 0.15
41 0.15
42 0.15
43 0.15
44 0.15
45 0.15
46 0.15
5 -0.17
6 -0.66
7 0.3
8 0.11

> <PUBCHEM_EFFECTIVE_ROTOR_COUNT>
6.8

> <PUBCHEM_PHARMACOPHORE_FEATURES>
7
1 2 acceptor
1 3 acceptor
1 4 acceptor
1 5 acceptor
5 1 7 8 9 10 rings
6 14 15 16 17 18 19 rings
6 20 21 22 23 24 25 rings

> <PUBCHEM_HEAVY_ATOM_COUNT>
25

> <PUBCHEM_ATOM_DEF_STEREO_COUNT>
0

> <PUBCHEM_ATOM_UDEF_STEREO_COUNT>
1

> <PUBCHEM_BOND_DEF_STEREO_COUNT>
0

> <PUBCHEM_BOND_UDEF_STEREO_COUNT>
0

> <PUBCHEM_ISOTOPIC_ATOM_COUNT>
0

> <PUBCHEM_COMPONENT_COUNT>
1

> <PUBCHEM_CACTVS_TAUTO_COUNT>
1

> <PUBCHEM_CONFORMER_ID>
010970E200000001

> <PUBCHEM_MMFF94_ENERGY>
77.6068

> <PUBCHEM_FEATURE_SELFOVERLAP>
35.537

> <PUBCHEM_SHAPE_FINGERPRINT>
10498660 4 10807924968745756207
114674 6 18270681944013465682
11578080 2 17917444158593091668
12107183 9 18116135853077013289
12363563 72 18264483060959993126
12553582 1 18191017018217501854
12623949 98 18263346015834797719
12633257 1 18188475999890916241
12714826 92 18127968818004198285
12788726 201 18051958509993015322
12839892 36 18048900501984275248
13140716 1 18191024710556884488
13149001 5 18053127269036133188
13257819 37 17696733486386979316
13533116 47 18263643979502083427
14787075 74 18342729724921092238
14844126 61 17836647800861761666
14863182 85 17910668761457036701
14955137 171 18186520991208213944
15664445 248 17985823735796416525
15775530 1 18339662103716033053
15927050 60 17757836629160839932
20028762 73 17328860994167158683
20567600 347 18051981316306046544
20567600 70 18412546522540707482
20600515 1 17899134094830292888
20775530 9 18342168998816530239
21421861 104 18334284349383656824
221490 88 18411131424915247158
23557571 272 17917442977577272533
23559900 14 18410300232536533753
314173 41 18336822099725328770
3737641 26 18339911637078283765
44062 13 18127410283287927703
5104073 3 18334846196416615739
5486654 36 18339345474832106523
613672 6 18119261798599314750
621550 34 18194973937127841581
6433294 58 18266457616034182634
6442390 28 17760366587398265408
7288768 16 16379193018458373545
7399639 24 18194699063473822708
7970288 3 18191581063325066366
81228 2 17321832302004774640
9709674 26 18412543176412770667

> <PUBCHEM_SHAPE_MULTIPOLES>
489.88
9.33
4.77
1.39
4.3
1.43
0.13
-9.78
-0.15
-2.71
-0.19
-0.02
0.02
1.13

> <PUBCHEM_SHAPE_SELFOVERLAP>
1035.299

> <PUBCHEM_SHAPE_VOLUME>
275.3

> <PUBCHEM_COORDINATE_TYPE>
2
5
10

$$$$

