47205198
  -OEChem-06241222583D

 30 31  0     0  0  0  0  0  0999 V2000
   -6.3592    1.1016   -1.2460 Br  0  0  0  0  0  0  0  0  0  0  0  0
   -3.7788    0.4707   -0.1155 O   0  0  0  0  0  0  0  0  0  0  0  0
    0.7016    0.8710   -1.0160 O   0  0  0  0  0  0  0  0  0  0  0  0
   -1.0469   -1.3417    1.2355 O   0  0  0  0  0  0  0  0  0  0  0  0
    2.3068    1.6196    0.4888 N   0  0  0  0  0  0  0  0  0  0  0  0
   -1.2499    0.9337    0.8290 N   0  0  0  0  0  0  0  0  0  0  0  0
    4.9289   -0.1512    0.5794 N   0  0  0  0  0  0  0  0  0  0  0  0
    5.4528   -1.3733    0.3836 N   0  0  0  0  0  0  0  0  0  0  0  0
    3.4373    1.6076   -0.4117 C   0  0  0  0  0  0  0  0  0  0  0  0
    4.1220    0.2717   -0.4359 C   0  0  0  0  0  0  0  0  0  0  0  0
    0.0607    1.3071    1.2723 C   0  0  0  0  0  0  0  0  0  0  0  0
    1.0258    1.2477    0.1074 C   0  0  0  0  0  0  0  0  0  0  0  0
    4.1182   -0.7443   -1.3602 C   0  0  0  0  0  0  0  0  0  0  0  0
   -1.7066   -0.3816    0.8462 C   0  0  0  0  0  0  0  0  0  0  0  0
   -3.0807   -0.6072    0.3284 C   0  0  0  0  0  0  0  0  0  0  0  0
    4.9540   -1.7305   -0.8028 C   0  0  0  0  0  0  0  0  0  0  0  0
   -3.8301   -1.7537    0.2022 C   0  0  0  0  0  0  0  0  0  0  0  0
   -5.0684   -1.3545   -0.3550 C   0  0  0  0  0  0  0  0  0  0  0  0
   -4.9873    0.0075   -0.5295 C   0  0  0  0  0  0  0  0  0  0  0  0
    4.1338    2.3838   -0.0772 H   0  0  0  0  0  0  0  0  0  0  0  0
    3.0953    1.8706   -1.4189 H   0  0  0  0  0  0  0  0  0  0  0  0
    0.0114    2.3305    1.6560 H   0  0  0  0  0  0  0  0  0  0  0  0
    0.3997    0.6319    2.0643 H   0  0  0  0  0  0  0  0  0  0  0  0
    2.4754    1.8922    1.4530 H   0  0  0  0  0  0  0  0  0  0  0  0
   -1.8597    1.6624    0.4689 H   0  0  0  0  0  0  0  0  0  0  0  0
    3.5871   -0.7692   -2.3005 H   0  0  0  0  0  0  0  0  0  0  0  0
    5.1648    0.3396    1.4329 H   0  0  0  0  0  0  0  0  0  0  0  0
    5.2199   -2.6947   -1.2117 H   0  0  0  0  0  0  0  0  0  0  0  0
   -3.5268   -2.7542    0.4762 H   0  0  0  0  0  0  0  0  0  0  0  0
   -5.9101   -1.9886   -0.5960 H   0  0  0  0  0  0  0  0  0  0  0  0
  1 19  1  0  0  0  0
  2 15  1  0  0  0  0
  2 19  1  0  0  0  0
  3 12  2  0  0  0  0
  4 14  2  0  0  0  0
  5  9  1  0  0  0  0
  5 12  1  0  0  0  0
  5 24  1  0  0  0  0
  6 11  1  0  0  0  0
  6 14  1  0  0  0  0
  6 25  1  0  0  0  0
  7  8  1  0  0  0  0
  7 10  1  0  0  0  0
  7 27  1  0  0  0  0
  8 16  2  0  0  0  0
  9 10  1  0  0  0  0
  9 20  1  0  0  0  0
  9 21  1  0  0  0  0
 10 13  2  0  0  0  0
 11 12  1  0  0  0  0
 11 22  1  0  0  0  0
 11 23  1  0  0  0  0
 13 16  1  0  0  0  0
 13 26  1  0  0  0  0
 14 15  1  0  0  0  0
 15 17  2  0  0  0  0
 16 28  1  0  0  0  0
 17 18  1  0  0  0  0
 17 29  1  0  0  0  0
 18 19  2  0  0  0  0
 18 30  1  0  0  0  0
M  END
> <PUBCHEM_COMPOUND_CID>
47205198

> <PUBCHEM_CONFORMER_RMSD>
1.2

> <PUBCHEM_CONFORMER_DIVERSEORDER>
1
33
14
23
37
4
21
17
32
34
5
16
40
11
6
10
38
18
19
12
41
2
42
24
36
35
27
30
25
3
7
15
22
8
39
9
13
29
31
28
26
20

> <PUBCHEM_MMFF94_PARTIAL_CHARGES>
26
1 -0.06
10 -0.33
11 0.36
12 0.57
13 -0.15
14 0.71
15 0.05
16 0.14
17 -0.15
18 -0.15
19 0.2
2 -0.28
24 0.37
25 0.37
26 0.15
27 0.27
28 0.15
29 0.15
3 -0.57
30 0.15
4 -0.57
5 -0.73
6 -0.73
7 0.3
8 -0.71
9 0.48

> <PUBCHEM_EFFECTIVE_ROTOR_COUNT>
7

> <PUBCHEM_PHARMACOPHORE_FEATURES>
10
1 1 hydrophobe
1 2 acceptor
1 3 acceptor
1 4 acceptor
1 5 donor
1 6 donor
1 7 donor
1 8 acceptor
5 2 15 17 18 19 rings
5 7 8 10 13 16 rings

> <PUBCHEM_HEAVY_ATOM_COUNT>
19

> <PUBCHEM_ATOM_DEF_STEREO_COUNT>
0

> <PUBCHEM_ATOM_UDEF_STEREO_COUNT>
0

> <PUBCHEM_BOND_DEF_STEREO_COUNT>
0

> <PUBCHEM_BOND_UDEF_STEREO_COUNT>
0

> <PUBCHEM_ISOTOPIC_ATOM_COUNT>
0

> <PUBCHEM_COMPONENT_COUNT>
1

> <PUBCHEM_CACTVS_TAUTO_COUNT>
8

> <PUBCHEM_CONFORMER_ID>
02D04B4E00000001

> <PUBCHEM_MMFF94_ENERGY>
13.8261

> <PUBCHEM_FEATURE_SELFOVERLAP>
50.743

> <PUBCHEM_SHAPE_FINGERPRINT>
10447042 23 18040436581769584844
10613725 11 17847063306664729271
10670039 82 14189306992633058526
10835480 77 18337115561866468656
11045977 3 7565349738344859717
11724838 91 6410999968402524528
11796584 16 18411984645706455387
11858739 19 18261111889341504260
12555020 224 18411135835852214291
12596602 18 5833992745745446735
12670543 26 18413393146435656637
12670545 2 18273216409021271514
12895836 83 13182441249985230298
13237642 15 7709461627943854477
13533116 47 18040434378409021088
1420 369 17894621561433257950
14251752 14 17774447190742477197
14251764 75 9005328449267609674
14341114 328 5833988347804274262
14573314 32 18343866597715080301
14787075 74 6483347833119879559
14848160 23 18040155119203054726
14848178 5 18113615698889609406
15052358 14 18343302608506076495
15183329 4 18272654584074767029
15188451 53 17531249517141700878
15239154 128 11455893533513218062
15880784 105 7276564113279781557
16760501 71 9439106667943610111
17349148 13 16805591543397084421
17834072 8 18342179977259185005
17857418 61 18113336409803027178
18222031 100 16515395253561870280
200 152 17821443556367007929
20369508 70 17967811596766500168
20374829 77 18411983563379627105
20621476 78 18113901601803574654
20621476 91 5111998439972312269
20645477 70 18410289177897381708
21250096 35 18113051627880853386
21279426 13 18413109476466816231
22079108 93 7493280036699406132
2215653 11 18410294717882941431
22224240 67 17894921686022878120
23253445 4 7420949777021062923
23272321 79 9943802283706946241
23402539 116 17967810566058784121
23559900 14 18336830784138827600
3004659 81 18343300362596772556
3009799 131 18186526518287752865
328311 84 18273209795135288187
32948 21 18060420209345590325
339767 52 17821452365134234462
4325135 7 8214137465151119029
439807 62 17459766817957663023
44062 13 18339642240030014695
5207 123 18410852192122273428
5283173 99 18337673130447277749
56616090 163 17917713522315576987
633830 44 16988565637104402157
6442390 28 7709458325251777740
76465 3 18186796985247394760
8988823 20 16950290585343596920
960060 61 17917702488301786190

> <PUBCHEM_SHAPE_MULTIPOLES>
359.42
15.36
1.88
1.2
2.53
0.17
-0.08
3.68
-5.56
-0.49
0.02
0.11
-0.07
1.08

> <PUBCHEM_SHAPE_SELFOVERLAP>
741.581

> <PUBCHEM_SHAPE_VOLUME>
208.9

> <PUBCHEM_COORDINATE_TYPE>
2
5
10

$$$$

