5045
  -OEChem-06261200293D

 48 50  0     0  0  0  0  0  0999 V2000
    4.1696   -0.5749    0.2856 O   0  0  0  0  0  0  0  0  0  0  0  0
   -4.3188   -1.5500   -1.5117 O   0  0  0  0  0  0  0  0  0  0  0  0
   -4.3086    2.4347    1.6511 O   0  0  0  0  0  0  0  0  0  0  0  0
    2.8430   -1.1315    2.0759 O   0  0  0  0  0  0  0  0  0  0  0  0
    2.6686   -2.2253    0.0374 N   0  0  0  0  0  0  0  0  0  0  0  0
   -3.9330    0.1643    0.0432 N   0  0  0  0  0  0  0  0  0  0  0  0
    0.2533   -2.5814    0.1053 C   0  0  0  0  0  0  0  0  0  0  0  0
    1.6143   -3.1496    0.3861 C   0  0  0  0  0  0  0  0  0  0  0  0
   -2.2675   -1.5316   -0.4150 C   0  0  0  0  0  0  0  0  0  0  0  0
   -0.4076   -1.8592    1.0919 C   0  0  0  0  0  0  0  0  0  0  0  0
   -0.3326   -2.7843   -1.1386 C   0  0  0  0  0  0  0  0  0  0  0  0
   -1.6726   -1.3324    0.8309 C   0  0  0  0  0  0  0  0  0  0  0  0
   -1.5975   -2.2575   -1.3997 C   0  0  0  0  0  0  0  0  0  0  0  0
   -3.5857   -0.9806   -0.6873 C   0  0  0  0  0  0  0  0  0  0  0  0
   -5.1439    0.8985    0.0087 C   0  0  0  0  0  0  0  0  0  0  0  0
    5.8458    1.1262    0.2472 C   0  0  0  0  0  0  0  0  0  0  0  0
    4.8062    0.4335    1.0784 C   0  0  0  0  0  0  0  0  0  0  0  0
    3.1921   -1.2961    0.9116 C   0  0  0  0  0  0  0  0  0  0  0  0
   -5.2987    2.0149    0.8134 C   0  0  0  0  0  0  0  0  0  0  0  0
   -6.1531    0.4750   -0.8406 C   0  0  0  0  0  0  0  0  0  0  0  0
    7.1481    0.6394    0.2272 C   0  0  0  0  0  0  0  0  0  0  0  0
    5.4977    2.2490   -0.4954 C   0  0  0  0  0  0  0  0  0  0  0  0
   -6.4967    2.7282    0.7679 C   0  0  0  0  0  0  0  0  0  0  0  0
   -7.3510    1.1883   -0.8859 C   0  0  0  0  0  0  0  0  0  0  0  0
   -7.5228    2.3148   -0.0818 C   0  0  0  0  0  0  0  0  0  0  0  0
    8.1147    1.2837   -0.5452 C   0  0  0  0  0  0  0  0  0  0  0  0
    6.4641    2.8932   -1.2679 C   0  0  0  0  0  0  0  0  0  0  0  0
    7.7726    2.4105   -1.2927 C   0  0  0  0  0  0  0  0  0  0  0  0
    1.7044   -3.4200    1.4451 H   0  0  0  0  0  0  0  0  0  0  0  0
    1.7764   -4.0672   -0.1908 H   0  0  0  0  0  0  0  0  0  0  0  0
    0.0405   -1.7068    2.0697 H   0  0  0  0  0  0  0  0  0  0  0  0
    0.1817   -3.3457   -1.9137 H   0  0  0  0  0  0  0  0  0  0  0  0
   -2.1703   -0.8083    1.6413 H   0  0  0  0  0  0  0  0  0  0  0  0
   -2.0407   -2.4193   -2.3790 H   0  0  0  0  0  0  0  0  0  0  0  0
    3.0366   -2.2512   -0.9088 H   0  0  0  0  0  0  0  0  0  0  0  0
   -3.2373    0.5712    0.6625 H   0  0  0  0  0  0  0  0  0  0  0  0
    4.0582    1.1555    1.4290 H   0  0  0  0  0  0  0  0  0  0  0  0
    5.2703   -0.0268    1.9596 H   0  0  0  0  0  0  0  0  0  0  0  0
   -6.1033   -0.3824   -1.4939 H   0  0  0  0  0  0  0  0  0  0  0  0
    7.4250   -0.2387    0.8040 H   0  0  0  0  0  0  0  0  0  0  0  0
    4.4811    2.6322   -0.4850 H   0  0  0  0  0  0  0  0  0  0  0  0
   -6.6446    3.6077    1.3889 H   0  0  0  0  0  0  0  0  0  0  0  0
   -8.1510    0.8677   -1.5471 H   0  0  0  0  0  0  0  0  0  0  0  0
    9.1334    0.9076   -0.5650 H   0  0  0  0  0  0  0  0  0  0  0  0
    6.1977    3.7702   -1.8506 H   0  0  0  0  0  0  0  0  0  0  0  0
   -8.4556    2.8701   -0.1172 H   0  0  0  0  0  0  0  0  0  0  0  0
    8.5250    2.9120   -1.8944 H   0  0  0  0  0  0  0  0  0  0  0  0
   -4.6095    3.2283    2.1262 H   0  0  0  0  0  0  0  0  0  0  0  0
  1 17  1  0  0  0  0
  1 18  1  0  0  0  0
  2 14  2  0  0  0  0
  3 19  1  0  0  0  0
  3 48  1  0  0  0  0
  4 18  2  0  0  0  0
  5  8  1  0  0  0  0
  5 18  1  0  0  0  0
  5 35  1  0  0  0  0
  6 14  1  0  0  0  0
  6 15  1  0  0  0  0
  6 36  1  0  0  0  0
  7  8  1  0  0  0  0
  7 10  2  0  0  0  0
  7 11  1  0  0  0  0
  8 29  1  0  0  0  0
  8 30  1  0  0  0  0
  9 12  2  0  0  0  0
  9 13  1  0  0  0  0
  9 14  1  0  0  0  0
 10 12  1  0  0  0  0
 10 31  1  0  0  0  0
 11 13  2  0  0  0  0
 11 32  1  0  0  0  0
 12 33  1  0  0  0  0
 13 34  1  0  0  0  0
 15 19  1  0  0  0  0
 15 20  2  0  0  0  0
 16 17  1  0  0  0  0
 16 21  2  0  0  0  0
 16 22  1  0  0  0  0
 17 37  1  0  0  0  0
 17 38  1  0  0  0  0
 19 23  2  0  0  0  0
 20 24  1  0  0  0  0
 20 39  1  0  0  0  0
 21 26  1  0  0  0  0
 21 40  1  0  0  0  0
 22 27  2  0  0  0  0
 22 41  1  0  0  0  0
 23 25  1  0  0  0  0
 23 42  1  0  0  0  0
 24 25  2  0  0  0  0
 24 43  1  0  0  0  0
 25 46  1  0  0  0  0
 26 28  2  0  0  0  0
 26 44  1  0  0  0  0
 27 28  1  0  0  0  0
 27 45  1  0  0  0  0
 28 47  1  0  0  0  0
M  END
> <PUBCHEM_COMPOUND_CID>
5045

> <PUBCHEM_CONFORMER_RMSD>
1

> <PUBCHEM_CONFORMER_DIVERSEORDER>
1
154
104
150
64
171
147
166
128
21
127
71
178
122
60
196
16
157
50
167
141
48
235
79
40
205
224
56
230
88
188
35
107
44
37
51
159
240
125
108
12
142
109
206
38
54
243
225
180
33
98
36
110
160
66
218
158
121
59
138
76
118
241
136
24
100
89
185
209
114
106
67
94
194
132
49
153
204
207
186
187
87
140
73
210
174
226
27
9
103
13
176
214
81
242
139
116
19
22
213
228
222
200
191
34
55
69
23
169
18
68
86
184
227
168
233
102
53
83
137
70
145
177
14
134
192
162
211
99
90
199
202
112
10
41
238
17
198
111
62
208
131
152
57
155
46
11
123
215
115
29
30
20
80
93
189
6
181
133
164
82
8
217
144
47
173
124
5
190
151
239
165
84
229
4
28
221
232
201
220
52
31
63
77
216
39
236
85
45
75
148
182
197
101
58
234
3
113
119
92
126
61
78
183
2
120
195
43
203
91
172
117
72
143
156
223
149
161
7
26
146
175
129
193
130
170
231
163
105
179
65
42
97
96
95
25
32
212
15
219
237
74
135

> <PUBCHEM_MMFF94_PARTIAL_CHARGES>
44
1 -0.43
10 -0.15
11 -0.15
12 -0.15
13 -0.15
14 0.54
15 0.12
16 -0.14
17 0.42
18 0.78
19 0.08
2 -0.57
20 -0.15
21 -0.15
22 -0.15
23 -0.15
24 -0.15
25 -0.15
26 -0.15
27 -0.15
28 -0.15
3 -0.53
31 0.15
32 0.15
33 0.15
34 0.15
35 0.37
36 0.37
39 0.15
4 -0.57
40 0.15
41 0.15
42 0.15
43 0.15
44 0.15
45 0.15
46 0.15
47 0.15
48 0.45
5 -0.73
6 -0.55
7 -0.14
8 0.44
9 0.09

> <PUBCHEM_EFFECTIVE_ROTOR_COUNT>
9

> <PUBCHEM_PHARMACOPHORE_FEATURES>
8
1 2 acceptor
1 3 donor
1 4 acceptor
1 5 donor
1 6 donor
6 15 19 20 23 24 25 rings
6 16 21 22 26 27 28 rings
6 7 9 10 11 12 13 rings

> <PUBCHEM_HEAVY_ATOM_COUNT>
28

> <PUBCHEM_ATOM_DEF_STEREO_COUNT>
0

> <PUBCHEM_ATOM_UDEF_STEREO_COUNT>
0

> <PUBCHEM_BOND_DEF_STEREO_COUNT>
0

> <PUBCHEM_BOND_UDEF_STEREO_COUNT>
0

> <PUBCHEM_ISOTOPIC_ATOM_COUNT>
0

> <PUBCHEM_COMPONENT_COUNT>
1

> <PUBCHEM_CACTVS_TAUTO_COUNT>
12

> <PUBCHEM_CONFORMER_ID>
000013B500000001

> <PUBCHEM_MMFF94_ENERGY>
76.3069

> <PUBCHEM_FEATURE_SELFOVERLAP>
40.598

> <PUBCHEM_SHAPE_FINGERPRINT>
10533779 1 18341908354943707308
11273773 42 18409733950179056063
11399510 152 15051195461822907780
1200032 147 18272652355393046330
12013929 112 18336250316089563790
12895837 130 18409167688906323007
13248334 5 18123752212699029858
14150022 121 17844516713587613411
14251764 75 18343865502793812402
14394314 77 18272087171334620236
14428016 204 18060698390192960333
14617042 71 18339077203266020761
14664723 55 18410284801257492924
14840074 17 18273500069545699949
14931854 50 17676203585160189944
15064981 113 17386268915100160228
15064981 194 18127405644860612614
15198563 99 17607546634986269735
15510800 12 6988026977377947652
15685185 35 18341610361079222557
15840311 113 18341891956757629447
16120349 67 18335412444578086418
16992752 21 18115879504071116631
17899979 129 18336541707534311118
190975 80 9655575202444295918
19438510 23 18130787833048383106
2026 5 8070024463641573661
20691028 202 18270681940441015668
21298829 104 18412262830864928452
21307412 95 4750869377710291567
21585482 111 18199752603698824469
270888 7 18413389817720048602
2748736 6 18411986845056615416
2838139 119 18188494571398309662
397830 11 17988634216882865747
4058900 60 18412545409917688386
4169191 19 18342182198047869517
4258327 124 18409168818825431147
4366758 26 18411974771683163364
445580 204 18335138679051510040
508180 173 17968097469631142456
54583773 228 18409456882809514613
5718773 13 8286204946288022030
5911458 16 18412262830933512924
6673363 416 18118964685493321823
7970288 3 9151183043035981844
9689198 14 18272646848770166722

> <PUBCHEM_SHAPE_MULTIPOLES>
542.79
25.25
4.11
1.4
13.54
0.33
-0.1
-31.33
4.56
0.01
0.37
0.03
0.06
-3.8

> <PUBCHEM_SHAPE_SELFOVERLAP>
1170.281

> <PUBCHEM_SHAPE_VOLUME>
295.7

> <PUBCHEM_COORDINATE_TYPE>
2
5
10

$$$$

