11076
  -OEChem-06261205182D

 39 43  0     0  0  0  0  0  0999 V2000
    8.8705   -1.2495    0.0000 O   0  0  0  0  0  0  0  0  0  0  0  0
    8.8705   -2.8590    0.0000 O   0  0  0  0  0  0  0  0  0  0  0  0
    3.4030    2.9744    0.0000 O   0  0  0  0  0  0  0  0  0  0  0  0
    2.0000    2.1859    0.0000 O   0  0  0  0  0  0  0  0  0  0  0  0
    4.3922   -1.5334    0.0000 N   0  0  0  0  0  0  0  0  0  0  0  0
    6.1922   -1.5542    0.0000 C   0  0  0  0  0  0  0  0  0  0  0  0
    5.2982   -1.0196    0.0000 C   0  0  0  0  0  0  0  0  0  0  0  0
    5.3098   -0.0196    0.0000 C   0  0  0  0  0  0  0  0  0  0  0  0
    6.1922   -2.5542    0.0000 C   0  0  0  0  0  0  0  0  0  0  0  0
    4.4496    0.4903    0.0000 C   0  0  0  0  0  0  0  0  0  0  0  0
    7.0582   -1.0542    0.0000 C   0  0  0  0  0  0  0  0  0  0  0  0
    7.9242   -1.5542    0.0000 C   0  0  0  0  0  0  0  0  0  0  0  0
    7.9242   -2.5542    0.0000 C   0  0  0  0  0  0  0  0  0  0  0  0
    7.0582   -3.0542    0.0000 C   0  0  0  0  0  0  0  0  0  0  0  0
    5.2982   -3.0889    0.0000 C   0  0  0  0  0  0  0  0  0  0  0  0
    4.3922   -2.5750    0.0000 C   0  0  0  0  0  0  0  0  0  0  0  0
    4.4612    1.4903    0.0000 C   0  0  0  0  0  0  0  0  0  0  0  0
    3.6010    2.0002    0.0000 C   0  0  0  0  0  0  0  0  0  0  0  0
    3.5779    0.0004    0.0000 C   0  0  0  0  0  0  0  0  0  0  0  0
    2.7292    1.5103    0.0000 C   0  0  0  0  0  0  0  0  0  0  0  0
    2.7177    0.5104    0.0000 C   0  0  0  0  0  0  0  0  0  0  0  0
    9.4541   -2.0542    0.0000 C   0  0  0  0  0  0  0  0  0  0  0  0
    3.5281   -3.0784    0.0000 C   0  0  0  0  0  0  0  0  0  0  0  0
    2.4156    3.0889    0.0000 C   0  0  0  0  0  0  0  0  0  0  0  0
    5.9191   -0.1344    0.0000 H   0  0  0  0  0  0  0  0  0  0  0  0
    5.5286    0.5605    0.0000 H   0  0  0  0  0  0  0  0  0  0  0  0
    7.0582   -0.4342    0.0000 H   0  0  0  0  0  0  0  0  0  0  0  0
    7.0582   -3.6742    0.0000 H   0  0  0  0  0  0  0  0  0  0  0  0
    5.3054   -3.7089    0.0000 H   0  0  0  0  0  0  0  0  0  0  0  0
    5.0017    1.7940    0.0000 H   0  0  0  0  0  0  0  0  0  0  0  0
    3.5707   -0.6196    0.0000 H   0  0  0  0  0  0  0  0  0  0  0  0
    2.1772    0.2066    0.0000 H   0  0  0  0  0  0  0  0  0  0  0  0
    9.9149   -2.4690    0.0000 H   0  0  0  0  0  0  0  0  0  0  0  0
    9.9149   -1.6395    0.0000 H   0  0  0  0  0  0  0  0  0  0  0  0
    3.2160   -2.5426    0.0000 H   0  0  0  0  0  0  0  0  0  0  0  0
    2.9924   -3.3905    0.0000 H   0  0  0  0  0  0  0  0  0  0  0  0
    3.8402   -3.6141    0.0000 H   0  0  0  0  0  0  0  0  0  0  0  0
    2.5513    3.6939    0.0000 H   0  0  0  0  0  0  0  0  0  0  0  0
    1.8282    3.2875    0.0000 H   0  0  0  0  0  0  0  0  0  0  0  0
  1 12  1  0  0  0  0
  1 22  1  0  0  0  0
  2 13  1  0  0  0  0
  2 22  1  0  0  0  0
  3 18  1  0  0  0  0
  3 24  1  0  0  0  0
  4 20  1  0  0  0  0
  4 24  1  0  0  0  0
  5  7  2  0  0  0  0
  5 16  1  0  0  0  0
  6  7  1  0  0  0  0
  6  9  1  0  0  0  0
  6 11  2  0  0  0  0
  7  8  1  0  0  0  0
  8 10  1  0  0  0  0
  8 25  1  0  0  0  0
  8 26  1  0  0  0  0
  9 14  2  0  0  0  0
  9 15  1  0  0  0  0
 10 17  2  0  0  0  0
 10 19  1  0  0  0  0
 11 12  1  0  0  0  0
 11 27  1  0  0  0  0
 12 13  2  0  0  0  0
 13 14  1  0  0  0  0
 14 28  1  0  0  0  0
 15 16  2  0  0  0  0
 15 29  1  0  0  0  0
 16 23  1  0  0  0  0
 17 18  1  0  0  0  0
 17 30  1  0  0  0  0
 18 20  2  0  0  0  0
 19 21  2  0  0  0  0
 19 31  1  0  0  0  0
 20 21  1  0  0  0  0
 21 32  1  0  0  0  0
 22 33  1  0  0  0  0
 22 34  1  0  0  0  0
 23 35  1  0  0  0  0
 23 36  1  0  0  0  0
 23 37  1  0  0  0  0
 24 38  1  0  0  0  0
 24 39  1  0  0  0  0
M  END
> <PUBCHEM_COMPOUND_CID>
11076

> <PUBCHEM_COMPOUND_CANONICALIZED>
1

> <PUBCHEM_CACTVS_COMPLEXITY>
461

> <PUBCHEM_CACTVS_HBOND_ACCEPTOR>
5

> <PUBCHEM_CACTVS_HBOND_DONOR>
0

> <PUBCHEM_CACTVS_ROTATABLE_BOND>
2

> <PUBCHEM_CACTVS_SUBSKEYS>
AAADccB6OAAAAAAAAAAAAAAAAAAAASJAAAA8YIAAAAAAAEix9AAAHgAAAAAADAyBngMyjtIIFACgAyRiRACCiCAhIiAImCA27JgdJuLEsZukMCpkwBHO6Aew0PMOoAABAAAQQABAAAIAACCAAAAAAAAAAA==

> <PUBCHEM_IUPAC_OPENEYE_NAME>
5-(1,3-benzodioxol-5-ylmethyl)-7-methyl-[1,3]dioxolo[4,5-g]isoquinoline

> <PUBCHEM_IUPAC_CAS_NAME>
5-(1,3-benzodioxol-5-ylmethyl)-7-methyl-[1,3]dioxolo[4,5-g]isoquinoline

> <PUBCHEM_IUPAC_NAME>
5-(1,3-benzodioxol-5-ylmethyl)-7-methyl-[1,3]dioxolo[4,5-g]isoquinoline

> <PUBCHEM_IUPAC_SYSTEMATIC_NAME>
5-(1,3-benzodioxol-5-ylmethyl)-7-methyl-[1,3]dioxolo[4,5-g]isoquinoline

> <PUBCHEM_IUPAC_TRADITIONAL_NAME>
7-methyl-5-piperonyl-[1,3]dioxol[4,5-g]isoquinoline

> <PUBCHEM_IUPAC_INCHI>
InChI=1S/C19H15NO4/c1-11-4-13-7-18-19(24-10-23-18)8-14(13)15(20-11)5-12-2-3-16-17(6-12)22-9-21-16/h2-4,6-8H,5,9-10H2,1H3

> <PUBCHEM_IUPAC_INCHIKEY>
LLEBCPBJQVCNAD-UHFFFAOYSA-N

> <PUBCHEM_XLOGP3_AA>
4.1

> <PUBCHEM_EXACT_MASS>
321.100108

> <PUBCHEM_MOLECULAR_FORMULA>
C19H15NO4

> <PUBCHEM_MOLECULAR_WEIGHT>
321.3267

> <PUBCHEM_OPENEYE_CAN_SMILES>
CC1=CC2=CC3=C(C=C2C(=N1)CC4=CC5=C(C=C4)OCO5)OCO3

> <PUBCHEM_OPENEYE_ISO_SMILES>
CC1=CC2=CC3=C(C=C2C(=N1)CC4=CC5=C(C=C4)OCO5)OCO3

> <PUBCHEM_CACTVS_TPSA>
49.8

> <PUBCHEM_MONOISOTOPIC_WEIGHT>
321.100108

> <PUBCHEM_TOTAL_CHARGE>
0

> <PUBCHEM_HEAVY_ATOM_COUNT>
24

> <PUBCHEM_ATOM_DEF_STEREO_COUNT>
0

> <PUBCHEM_ATOM_UDEF_STEREO_COUNT>
0

> <PUBCHEM_BOND_DEF_STEREO_COUNT>
0

> <PUBCHEM_BOND_UDEF_STEREO_COUNT>
0

> <PUBCHEM_ISOTOPIC_ATOM_COUNT>
0

> <PUBCHEM_COMPONENT_COUNT>
1

> <PUBCHEM_CACTVS_TAUTO_COUNT>
1

> <PUBCHEM_COORDINATE_TYPE>
1
5
255

> <PUBCHEM_BONDANNOTATIONS>
10  17  8
10  19  8
11  12  8
12  13  8
13  14  8
15  16  8
17  18  8
18  20  8
19  21  8
20  21  8
5  16  8
5  7  8
6  11  8
6  7  8
6  9  8
9  14  8
9  15  8

$$$$

