8919
  -OEChem-06261203143D

 38 37  0     0  0  0  0  0  0999 V2000
    7.9175   -0.6134    0.0708 Br  0  0  0  0  0  0  0  0  0  0  0  0
   -0.0351   -0.3643   -0.0408 C   0  0  0  0  0  0  0  0  0  0  0  0
   -1.3022    0.4950   -0.0143 C   0  0  0  0  0  0  0  0  0  0  0  0
    1.2237    0.5054   -0.0281 C   0  0  0  0  0  0  0  0  0  0  0  0
   -2.5611   -0.3741   -0.0592 C   0  0  0  0  0  0  0  0  0  0  0  0
    2.5244   -0.3032   -0.0614 C   0  0  0  0  0  0  0  0  0  0  0  0
   -3.8609    0.4343   -0.0129 C   0  0  0  0  0  0  0  0  0  0  0  0
    3.8200    0.5113    0.0058 C   0  0  0  0  0  0  0  0  0  0  0  0
   -5.1185   -0.4372    0.0171 C   0  0  0  0  0  0  0  0  0  0  0  0
    5.0840   -0.3504   -0.0075 C   0  0  0  0  0  0  0  0  0  0  0  0
   -6.3848    0.4198    0.0506 C   0  0  0  0  0  0  0  0  0  0  0  0
    6.3323    0.5161    0.0318 C   0  0  0  0  0  0  0  0  0  0  0  0
   -7.6392   -0.4394    0.0480 C   0  0  0  0  0  0  0  0  0  0  0  0
   -0.0342   -0.9935   -0.9390 H   0  0  0  0  0  0  0  0  0  0  0  0
   -0.0260   -1.0362    0.8258 H   0  0  0  0  0  0  0  0  0  0  0  0
   -1.3119    1.1091    0.8942 H   0  0  0  0  0  0  0  0  0  0  0  0
   -1.3029    1.1813   -0.8696 H   0  0  0  0  0  0  0  0  0  0  0  0
    1.2069    1.1853   -0.8887 H   0  0  0  0  0  0  0  0  0  0  0  0
    1.2192    1.1335    0.8713 H   0  0  0  0  0  0  0  0  0  0  0  0
   -2.5454   -1.0717    0.7875 H   0  0  0  0  0  0  0  0  0  0  0  0
   -2.5509   -0.9836   -0.9712 H   0  0  0  0  0  0  0  0  0  0  0  0
    2.5160   -1.0114    0.7771 H   0  0  0  0  0  0  0  0  0  0  0  0
    2.5369   -0.9093   -0.9762 H   0  0  0  0  0  0  0  0  0  0  0  0
   -3.8501    1.0783    0.8754 H   0  0  0  0  0  0  0  0  0  0  0  0
   -3.8984    1.0990   -0.8849 H   0  0  0  0  0  0  0  0  0  0  0  0
    3.8086    1.1234    0.9162 H   0  0  0  0  0  0  0  0  0  0  0  0
    3.8448    1.2067   -0.8424 H   0  0  0  0  0  0  0  0  0  0  0  0
   -5.0916   -1.0914    0.8967 H   0  0  0  0  0  0  0  0  0  0  0  0
   -5.1342   -1.0849   -0.8678 H   0  0  0  0  0  0  0  0  0  0  0  0
    5.0686   -1.0313    0.8526 H   0  0  0  0  0  0  0  0  0  0  0  0
    5.0909   -0.9781   -0.9073 H   0  0  0  0  0  0  0  0  0  0  0  0
   -6.3827    1.0524    0.9459 H   0  0  0  0  0  0  0  0  0  0  0  0
   -6.4063    1.0874   -0.8186 H   0  0  0  0  0  0  0  0  0  0  0  0
    6.3716    1.1374    0.9307 H   0  0  0  0  0  0  0  0  0  0  0  0
    6.4195    1.1496   -0.8550 H   0  0  0  0  0  0  0  0  0  0  0  0
   -7.6880   -1.0599   -0.8525 H   0  0  0  0  0  0  0  0  0  0  0  0
   -7.6648   -1.0986    0.9216 H   0  0  0  0  0  0  0  0  0  0  0  0
   -8.5320    0.1932    0.0734 H   0  0  0  0  0  0  0  0  0  0  0  0
  1 12  1  0  0  0  0
  2  3  1  0  0  0  0
  2  4  1  0  0  0  0
  2 14  1  0  0  0  0
  2 15  1  0  0  0  0
  3  5  1  0  0  0  0
  3 16  1  0  0  0  0
  3 17  1  0  0  0  0
  4  6  1  0  0  0  0
  4 18  1  0  0  0  0
  4 19  1  0  0  0  0
  5  7  1  0  0  0  0
  5 20  1  0  0  0  0
  5 21  1  0  0  0  0
  6  8  1  0  0  0  0
  6 22  1  0  0  0  0
  6 23  1  0  0  0  0
  7  9  1  0  0  0  0
  7 24  1  0  0  0  0
  7 25  1  0  0  0  0
  8 10  1  0  0  0  0
  8 26  1  0  0  0  0
  8 27  1  0  0  0  0
  9 11  1  0  0  0  0
  9 28  1  0  0  0  0
  9 29  1  0  0  0  0
 10 12  1  0  0  0  0
 10 30  1  0  0  0  0
 10 31  1  0  0  0  0
 11 13  1  0  0  0  0
 11 32  1  0  0  0  0
 11 33  1  0  0  0  0
 12 34  1  0  0  0  0
 12 35  1  0  0  0  0
 13 36  1  0  0  0  0
 13 37  1  0  0  0  0
 13 38  1  0  0  0  0
M  END
> <PUBCHEM_COMPOUND_CID>
8919

> <PUBCHEM_CONFORMER_RMSD>
1

> <PUBCHEM_CONFORMER_DIVERSEORDER>
1
534
400
482
96
326
2
251
679
475
364
319
573
49
738
334
10
358
240
22
538
914
29
46
857
401
864
40
764
207
751
231
532
596
99
777
853
851
42
57
515
151
916
7
446
435
44
773
303
129
21
243
173
433
208
137
678
216
509
209
13
510
67
118
820
743
487
885
111
736
818
106
144
633
18
23
361
391
624
276
367
79
915
239
295
246
237
332
65
342
252
412
927
107
506
17
249
258
843
794
198
657
879
676
472
113
194
241
929
514
6
530
512
32
139
344
213
290
636
399
223
275
95
724
186
325
899
259
9
331
813
898
298
671
517
505
835
760
461
222
822
821
776
63
823
426
452
627
771

> <PUBCHEM_MMFF94_PARTIAL_CHARGES>
2
1 -0.23
12 0.23

> <PUBCHEM_EFFECTIVE_ROTOR_COUNT>
10

> <PUBCHEM_PHARMACOPHORE_FEATURES>
2
1 1 hydrophobe
1 13 hydrophobe

> <PUBCHEM_HEAVY_ATOM_COUNT>
13

> <PUBCHEM_ATOM_DEF_STEREO_COUNT>
0

> <PUBCHEM_ATOM_UDEF_STEREO_COUNT>
0

> <PUBCHEM_BOND_DEF_STEREO_COUNT>
0

> <PUBCHEM_BOND_UDEF_STEREO_COUNT>
0

> <PUBCHEM_ISOTOPIC_ATOM_COUNT>
0

> <PUBCHEM_COMPONENT_COUNT>
1

> <PUBCHEM_CACTVS_TAUTO_COUNT>
1

> <PUBCHEM_CONFORMER_ID>
000022D700000001

> <PUBCHEM_MMFF94_ENERGY>
-2.9191

> <PUBCHEM_FEATURE_SELFOVERLAP>
10.149

> <PUBCHEM_SHAPE_FINGERPRINT>
12091667 2 17917992781183945781
13533116 47 18341056315167947874
14123256 10 18410573993746686483
14251764 18 18408885152539660794
14251764 46 18410292514469733762
14729087 3 5545203800913202331
17834076 25 18410855460128174789
18006028 8 18334013895303784521
20281389 69 18410014334297837952
20621476 8 18131072653303359487
21315763 28 18410575084668736928
22224240 67 15140684683010573732
23035841 295 18334858316075813422
23402539 116 17894636937173513293
23521765 1 18335420166369705988
246663 6 18202279208193291442
28498 318 18412828018933829350
33532 11 18273217530097718426
33684 2 18410293618835491531
42788 4 18411981360673405341
8209 1 18410856563940038124

> <PUBCHEM_SHAPE_MULTIPOLES>
273.48
24.5
0.83
0.63
1.66
0.01
0
3.17
-0.79
0.22
0
0.09
0.01
-0.01

> <PUBCHEM_SHAPE_SELFOVERLAP>
470.777

> <PUBCHEM_SHAPE_VOLUME>
182.7

> <PUBCHEM_COORDINATE_TYPE>
2
5
10

$$$$

