10566
  -OEChem-06261204413D

 16 15  0     0  0  0  0  0  0999 V2000
   -0.7294   -0.1083    0.0002 C   0  0  0  0  0  0  0  0  0  0  0  0
    0.7293    0.1083    0.0004 C   0  0  0  0  0  0  0  0  0  0  0  0
   -1.6386    1.0973   -0.0006 C   0  0  0  0  0  0  0  0  0  0  0  0
    1.6387   -1.0974   -0.0006 C   0  0  0  0  0  0  0  0  0  0  0  0
   -1.2915   -1.3311    0.0003 C   0  0  0  0  0  0  0  0  0  0  0  0
    1.2915    1.3311    0.0003 C   0  0  0  0  0  0  0  0  0  0  0  0
   -2.6983    0.8171   -0.0010 H   0  0  0  0  0  0  0  0  0  0  0  0
   -1.4710    1.7101   -0.8930 H   0  0  0  0  0  0  0  0  0  0  0  0
   -1.4719    1.7107    0.8915 H   0  0  0  0  0  0  0  0  0  0  0  0
    1.4710   -1.7101   -0.8931 H   0  0  0  0  0  0  0  0  0  0  0  0
    2.6983   -0.8171   -0.0012 H   0  0  0  0  0  0  0  0  0  0  0  0
    1.4720   -1.7109    0.8915 H   0  0  0  0  0  0  0  0  0  0  0  0
   -2.3708   -1.4523    0.0000 H   0  0  0  0  0  0  0  0  0  0  0  0
   -0.7149   -2.2491    0.0008 H   0  0  0  0  0  0  0  0  0  0  0  0
    2.3708    1.4523   -0.0001 H   0  0  0  0  0  0  0  0  0  0  0  0
    0.7150    2.2492    0.0005 H   0  0  0  0  0  0  0  0  0  0  0  0
  1  2  1  0  0  0  0
  1  3  1  0  0  0  0
  1  5  2  0  0  0  0
  2  4  1  0  0  0  0
  2  6  2  0  0  0  0
  3  7  1  0  0  0  0
  3  8  1  0  0  0  0
  3  9  1  0  0  0  0
  4 10  1  0  0  0  0
  4 11  1  0  0  0  0
  4 12  1  0  0  0  0
  5 13  1  0  0  0  0
  5 14  1  0  0  0  0
  6 15  1  0  0  0  0
  6 16  1  0  0  0  0
M  END
> <PUBCHEM_COMPOUND_CID>
10566

> <PUBCHEM_CONFORMER_RMSD>
0.4

> <PUBCHEM_CONFORMER_DIVERSEORDER>
1

> <PUBCHEM_MMFF94_PARTIAL_CHARGES>
10
1 -0.14
13 0.15
14 0.15
15 0.15
16 0.15
2 -0.14
3 0.14
4 0.14
5 -0.3
6 -0.3

> <PUBCHEM_EFFECTIVE_ROTOR_COUNT>
1

> <PUBCHEM_PHARMACOPHORE_FEATURES>
0

> <PUBCHEM_HEAVY_ATOM_COUNT>
6

> <PUBCHEM_ATOM_DEF_STEREO_COUNT>
0

> <PUBCHEM_ATOM_UDEF_STEREO_COUNT>
0

> <PUBCHEM_BOND_DEF_STEREO_COUNT>
0

> <PUBCHEM_BOND_UDEF_STEREO_COUNT>
0

> <PUBCHEM_ISOTOPIC_ATOM_COUNT>
0

> <PUBCHEM_COMPONENT_COUNT>
1

> <PUBCHEM_CACTVS_TAUTO_COUNT>
1

> <PUBCHEM_CONFORMER_ID>
0000294600000001

> <PUBCHEM_MMFF94_ENERGY>
10.6718

> <PUBCHEM_FEATURE_SELFOVERLAP>
0

> <PUBCHEM_SHAPE_FINGERPRINT>
16714656 1 17979067516052971238
20096714 4 18411417349330344441
21040471 1 18338516455606812293
23552423 10 18272087158654685982
24536 1 18339657654123684357
29004967 10 18341326717243773618

> <PUBCHEM_SHAPE_MULTIPOLES>
123.48
2.24
1.61
0.62
0
0
0
0
0
0
0
0
0
0

> <PUBCHEM_SHAPE_SELFOVERLAP>
224.357

> <PUBCHEM_SHAPE_VOLUME>
81.4

> <PUBCHEM_COORDINATE_TYPE>
2
5
10

$$$$

