51090910
  -OEChem-06241223003D

 46 47  0     1  0  0  0  0  0999 V2000
   -2.2883   -0.5606    2.0132 O   0  0  0  0  0  0  0  0  0  0  0  0
    2.4687   -0.6148   -0.4271 N   0  0  0  0  0  0  0  0  0  0  0  0
   -2.0694   -1.7644    0.0423 N   0  0  0  0  0  0  0  0  0  0  0  0
   -3.9695    1.3650    0.7272 N   0  0  0  0  0  0  0  0  0  0  0  0
   -4.7290    2.1055   -0.0982 N   0  0  0  0  0  0  0  0  0  0  0  0
    4.2517    0.7649    0.6185 C   0  0  1  0  0  0  0  0  0  0  0  0
    2.2195    1.8668   -0.4454 C   0  0  1  0  0  0  0  0  0  0  0  0
    3.7058    2.0122   -0.0901 C   0  0  0  0  0  0  0  0  0  0  0  0
    1.9782    0.5423   -1.1897 C   0  0  0  0  0  0  0  0  0  0  0  0
    3.9141   -0.5059   -0.1791 C   0  0  0  0  0  0  0  0  0  0  0  0
    2.1638   -1.8591   -1.1334 C   0  0  0  0  0  0  0  0  0  0  0  0
    1.3260    1.9909    0.7931 C   0  0  0  0  0  0  0  0  0  0  0  0
    5.7608    0.8844    0.8290 C   0  0  0  0  0  0  0  0  0  0  0  0
    0.6888   -2.2446   -1.0027 C   0  0  0  0  0  0  0  0  0  0  0  0
    0.2557   -2.4756    0.4504 C   0  0  0  0  0  0  0  0  0  0  0  0
   -1.2297   -2.8051    0.5690 C   0  0  0  0  0  0  0  0  0  0  0  0
   -2.5370   -0.7112    0.8199 C   0  0  0  0  0  0  0  0  0  0  0  0
   -3.4166    0.2690    0.1325 C   0  0  0  0  0  0  0  0  0  0  0  0
   -3.8447    0.2939   -1.1724 C   0  0  0  0  0  0  0  0  0  0  0  0
   -4.6489    1.4462   -1.2570 C   0  0  0  0  0  0  0  0  0  0  0  0
    1.9520    2.6906   -1.1199 H   0  0  0  0  0  0  0  0  0  0  0  0
    3.7864    0.6889    1.6099 H   0  0  0  0  0  0  0  0  0  0  0  0
    4.2708    2.1780   -1.0172 H   0  0  0  0  0  0  0  0  0  0  0  0
    3.8630    2.9011    0.5330 H   0  0  0  0  0  0  0  0  0  0  0  0
    2.4701    0.5900   -2.1710 H   0  0  0  0  0  0  0  0  0  0  0  0
    4.2522   -1.3729    0.4029 H   0  0  0  0  0  0  0  0  0  0  0  0
    4.4696   -0.5159   -1.1269 H   0  0  0  0  0  0  0  0  0  0  0  0
    0.9025    0.4622   -1.3800 H   0  0  0  0  0  0  0  0  0  0  0  0
    2.7482   -2.6851   -0.7065 H   0  0  0  0  0  0  0  0  0  0  0  0
    2.4447   -1.7994   -2.1929 H   0  0  0  0  0  0  0  0  0  0  0  0
    1.5027    1.1905    1.5181 H   0  0  0  0  0  0  0  0  0  0  0  0
    6.2924    0.9586   -0.1258 H   0  0  0  0  0  0  0  0  0  0  0  0
    6.1481    0.0114    1.3648 H   0  0  0  0  0  0  0  0  0  0  0  0
    6.0006    1.7743    1.4204 H   0  0  0  0  0  0  0  0  0  0  0  0
    0.2690    1.9516    0.5077 H   0  0  0  0  0  0  0  0  0  0  0  0
    1.4977    2.9473    1.2983 H   0  0  0  0  0  0  0  0  0  0  0  0
    0.5282   -3.1737   -1.5649 H   0  0  0  0  0  0  0  0  0  0  0  0
    0.0542   -1.4936   -1.4836 H   0  0  0  0  0  0  0  0  0  0  0  0
    0.4646   -1.5811    1.0492 H   0  0  0  0  0  0  0  0  0  0  0  0
    0.8411   -3.2961    0.8819 H   0  0  0  0  0  0  0  0  0  0  0  0
   -1.4855   -2.9782    1.6200 H   0  0  0  0  0  0  0  0  0  0  0  0
   -1.4603   -3.7206    0.0138 H   0  0  0  0  0  0  0  0  0  0  0  0
   -2.3223   -1.8236   -0.9386 H   0  0  0  0  0  0  0  0  0  0  0  0
   -3.6193   -0.4076   -1.9622 H   0  0  0  0  0  0  0  0  0  0  0  0
   -3.8710    1.6681    1.6882 H   0  0  0  0  0  0  0  0  0  0  0  0
   -5.1799    1.8329   -2.1150 H   0  0  0  0  0  0  0  0  0  0  0  0
  1 17  2  0  0  0  0
  2  9  1  0  0  0  0
  2 10  1  0  0  0  0
  2 11  1  0  0  0  0
  3 16  1  0  0  0  0
  3 17  1  0  0  0  0
  3 43  1  0  0  0  0
  4  5  1  0  0  0  0
  4 18  1  0  0  0  0
  4 45  1  0  0  0  0
  5 20  2  0  0  0  0
  6  8  1  0  0  0  0
  6 10  1  0  0  0  0
  6 13  1  0  0  0  0
  6 22  1  0  0  0  0
  7  8  1  0  0  0  0
  7  9  1  0  0  0  0
  7 12  1  0  0  0  0
  7 21  1  0  0  0  0
  8 23  1  0  0  0  0
  8 24  1  0  0  0  0
  9 25  1  0  0  0  0
  9 28  1  0  0  0  0
 10 26  1  0  0  0  0
 10 27  1  0  0  0  0
 11 14  1  0  0  0  0
 11 29  1  0  0  0  0
 11 30  1  0  0  0  0
 12 31  1  0  0  0  0
 12 35  1  0  0  0  0
 12 36  1  0  0  0  0
 13 32  1  0  0  0  0
 13 33  1  0  0  0  0
 13 34  1  0  0  0  0
 14 15  1  0  0  0  0
 14 37  1  0  0  0  0
 14 38  1  0  0  0  0
 15 16  1  0  0  0  0
 15 39  1  0  0  0  0
 15 40  1  0  0  0  0
 16 41  1  0  0  0  0
 16 42  1  0  0  0  0
 17 18  1  0  0  0  0
 18 19  2  0  0  0  0
 19 20  1  0  0  0  0
 19 44  1  0  0  0  0
 20 46  1  0  0  0  0
M  END
> <PUBCHEM_COMPOUND_CID>
51090910

> <PUBCHEM_CONFORMER_RMSD>
0.8

> <PUBCHEM_CONFORMER_DIVERSEORDER>
1
48
312
246
42
308
298
175
28
149
81
122
38
275
245
255
118
214
172
60
239
266
199
22
131
326
193
152
8
21
254
205
67
90
240
59
200
79
114
19
97
311
257
318
110
282
238
191
87
164
227
116
168
210
17
115
102
196
322
303
185
143
178
73
82
100
230
144
198
278
190
18
252
296
207
328
241
294
93
192
283
194
85
265
295
242
88
92
187
46
47
203
26
232
160
123
219
302
150
279
211
204
291
13
288
111
157
253
139
126
182
179
57
141
218
209
304
167
151
256
15
76
267
112
271
290
201
30
16
269
264
260
24
180
75
137
55
220
91
189
107
138
221
119
197
31
98
27
32
301
52
147
165
188
276
124
314
104
58
316
270
5
101
215
293
216
177
14
327
23
235
313
99
299
95
202
217
224
285
25
148
259
184
77
223
324
134
2
158
284
146
39
120
170
306
272
244
53
36
234
208
243
281
45
274
183
226
161
136
61
133
310
309
277
66
163
127
65
43
233
292
247
286
300
50
68
213
69
222
229
174
289
78
84
263
262
261
315
248
250
228
128
154
258
4
236
237
63
268
323
280
181
325
49
40
231
320
166
117
12
54
35
71
106
108
3
317
142
51
212
273
140
132
153
156
113
251
319
62
44
287
307
162
169
80
159
29
305
6
10
171
155
105
297
173
145
249
86
83
9
72
94
34
129
7
56
41
225
321
135
206
89
74
70
109
121
195
33
176
11
37
130
103
20
186
64
125
96

> <PUBCHEM_MMFF94_PARTIAL_CHARGES>
17
1 -0.57
10 0.27
11 0.27
16 0.3
17 0.71
18 -0.24
19 -0.15
2 -0.81
20 0.14
3 -0.73
4 0.3
43 0.37
44 0.15
45 0.27
46 0.15
5 -0.71
9 0.27

> <PUBCHEM_EFFECTIVE_ROTOR_COUNT>
8.2

> <PUBCHEM_PHARMACOPHORE_FEATURES>
7
1 1 acceptor
1 2 cation
1 3 donor
1 4 donor
1 5 acceptor
5 4 5 18 19 20 rings
6 2 6 7 8 9 10 rings

> <PUBCHEM_HEAVY_ATOM_COUNT>
20

> <PUBCHEM_ATOM_DEF_STEREO_COUNT>
0

> <PUBCHEM_ATOM_UDEF_STEREO_COUNT>
2

> <PUBCHEM_BOND_DEF_STEREO_COUNT>
0

> <PUBCHEM_BOND_UDEF_STEREO_COUNT>
0

> <PUBCHEM_ISOTOPIC_ATOM_COUNT>
0

> <PUBCHEM_COMPONENT_COUNT>
1

> <PUBCHEM_CACTVS_TAUTO_COUNT>
7

> <PUBCHEM_CONFORMER_ID>
030B95DE00000001

> <PUBCHEM_MMFF94_ENERGY>
14.8694

> <PUBCHEM_FEATURE_SELFOVERLAP>
35.52

> <PUBCHEM_SHAPE_FINGERPRINT>
11370993 70 18410294709298365789
12077114 3 18271524199947871202
12596602 18 14117219673052439861
12633257 1 18131359591752965780
13103583 49 15913329082991701026
13402501 40 18341615940352438605
14251732 17 18343588447243308784
14251751 93 18270120106567116483
14251764 30 11887682822488855160
14251764 38 18339362959411885629
14466204 15 18341622503336442056
14790565 3 17837203772153209740
14957384 54 18270689666685929922
15375358 24 18409448093924473812
17093844 170 18340770458987010676
18219364 16 18339625794399447179
19752476 56 18116710914347663053
20621476 13 18337951298061105076
21279426 13 18334844010425837902
21475661 188 18343301491508637327
22749437 52 18336257968534185521
23227448 37 18408322160227819695
23559900 14 18334006208208857182
312425 83 15648154456083110176
3524813 1 18129658750396544847
474 4 18409451427156647263
508706 21 18342172233085354751
6328613 192 18343014451277937940
9981440 41 18413110541645820523

> <PUBCHEM_SHAPE_MULTIPOLES>
385.8
10.86
3.06
1.3
0.39
1.22
0.08
-7.47
0.3
0.53
-0.03
0.55
0.11
1.18

> <PUBCHEM_SHAPE_SELFOVERLAP>
776.099

> <PUBCHEM_SHAPE_VOLUME>
225.7

> <PUBCHEM_COORDINATE_TYPE>
2
5
10

$$$$

