9802
  -OEChem-06261204043D

 37 39  0     0  0  0  0  0  0999 V2000
   -7.3268    0.5801    0.0019 F   0  0  0  0  0  0  0  0  0  0  0  0
   -7.5010   -1.3004   -1.0892 F   0  0  0  0  0  0  0  0  0  0  0  0
   -7.5040   -1.2996    1.0900 F   0  0  0  0  0  0  0  0  0  0  0  0
    7.3267    0.5801    0.0005 F   0  0  0  0  0  0  0  0  0  0  0  0
    7.5002   -1.3012    1.0902 F   0  0  0  0  0  0  0  0  0  0  0  0
    7.5048   -1.2987   -1.0890 F   0  0  0  0  0  0  0  0  0  0  0  0
   -4.9122   -1.9676   -0.0045 O   0  0  0  0  0  0  0  0  0  0  0  0
    4.9121   -1.9675    0.0032 O   0  0  0  0  0  0  0  0  0  0  0  0
   -4.8059    0.3869    0.0006 N   0  0  0  0  0  0  0  0  0  0  0  0
    4.8061    0.3868   -0.0003 N   0  0  0  0  0  0  0  0  0  0  0  0
    0.0000   -1.0460   -0.0008 C   0  0  0  0  0  0  0  0  0  0  0  0
   -1.1750   -0.0904   -0.0006 C   0  0  0  0  0  0  0  0  0  0  0  0
    1.1749   -0.0905   -0.0008 C   0  0  0  0  0  0  0  0  0  0  0  0
   -0.7236    1.2486   -0.0003 C   0  0  0  0  0  0  0  0  0  0  0  0
    0.7235    1.2486   -0.0004 C   0  0  0  0  0  0  0  0  0  0  0  0
   -2.5240   -0.3987   -0.0005 C   0  0  0  0  0  0  0  0  0  0  0  0
    2.5240   -0.3987   -0.0007 C   0  0  0  0  0  0  0  0  0  0  0  0
   -1.6292    2.2963    0.0002 C   0  0  0  0  0  0  0  0  0  0  0  0
    1.6292    2.2962   -0.0001 C   0  0  0  0  0  0  0  0  0  0  0  0
   -3.4367    0.6576    0.0000 C   0  0  0  0  0  0  0  0  0  0  0  0
    3.4367    0.6576   -0.0005 C   0  0  0  0  0  0  0  0  0  0  0  0
   -2.9938    1.9916    0.0005 C   0  0  0  0  0  0  0  0  0  0  0  0
    2.9939    1.9916   -0.0003 C   0  0  0  0  0  0  0  0  0  0  0  0
   -5.4407   -0.8609    0.0003 C   0  0  0  0  0  0  0  0  0  0  0  0
    5.4407   -0.8609   -0.0005 C   0  0  0  0  0  0  0  0  0  0  0  0
   -6.9374   -0.7203    0.0011 C   0  0  0  0  0  0  0  0  0  0  0  0
    6.9375   -0.7203    0.0000 C   0  0  0  0  0  0  0  0  0  0  0  0
    0.0000   -1.6603    0.9042 H   0  0  0  0  0  0  0  0  0  0  0  0
   -0.0001   -1.6600   -0.9062 H   0  0  0  0  0  0  0  0  0  0  0  0
   -2.7882   -1.4454   -0.0003 H   0  0  0  0  0  0  0  0  0  0  0  0
    2.7882   -1.4453   -0.0011 H   0  0  0  0  0  0  0  0  0  0  0  0
   -1.3026    3.3308    0.0005 H   0  0  0  0  0  0  0  0  0  0  0  0
    1.3026    3.3307    0.0003 H   0  0  0  0  0  0  0  0  0  0  0  0
   -3.7130    2.8080    0.0010 H   0  0  0  0  0  0  0  0  0  0  0  0
    3.7130    2.8081    0.0000 H   0  0  0  0  0  0  0  0  0  0  0  0
   -5.4107    1.2055    0.0020 H   0  0  0  0  0  0  0  0  0  0  0  0
    5.4109    1.2056   -0.0008 H   0  0  0  0  0  0  0  0  0  0  0  0
  1 26  1  0  0  0  0
  2 26  1  0  0  0  0
  3 26  1  0  0  0  0
  4 27  1  0  0  0  0
  5 27  1  0  0  0  0
  6 27  1  0  0  0  0
  7 24  2  0  0  0  0
  8 25  2  0  0  0  0
  9 20  1  0  0  0  0
  9 24  1  0  0  0  0
  9 36  1  0  0  0  0
 10 21  1  0  0  0  0
 10 25  1  0  0  0  0
 10 37  1  0  0  0  0
 11 12  1  0  0  0  0
 11 13  1  0  0  0  0
 11 28  1  0  0  0  0
 11 29  1  0  0  0  0
 12 14  2  0  0  0  0
 12 16  1  0  0  0  0
 13 15  2  0  0  0  0
 13 17  1  0  0  0  0
 14 15  1  0  0  0  0
 14 18  1  0  0  0  0
 15 19  1  0  0  0  0
 16 20  2  0  0  0  0
 16 30  1  0  0  0  0
 17 21  2  0  0  0  0
 17 31  1  0  0  0  0
 18 22  2  0  0  0  0
 18 32  1  0  0  0  0
 19 23  2  0  0  0  0
 19 33  1  0  0  0  0
 20 22  1  0  0  0  0
 21 23  1  0  0  0  0
 22 34  1  0  0  0  0
 23 35  1  0  0  0  0
 24 26  1  0  0  0  0
 25 27  1  0  0  0  0
M  END
> <PUBCHEM_COMPOUND_CID>
9802

> <PUBCHEM_CONFORMER_RMSD>
0.8

> <PUBCHEM_CONFORMER_DIVERSEORDER>
1
3
2

> <PUBCHEM_MMFF94_PARTIAL_CHARGES>
33
1 -0.34
10 -0.55
11 0.29
12 -0.14
13 -0.14
16 -0.15
17 -0.15
18 -0.15
19 -0.15
2 -0.34
20 0.12
21 0.12
22 -0.15
23 -0.15
24 0.57
25 0.57
26 1.08
27 1.08
3 -0.34
30 0.15
31 0.15
32 0.15
33 0.15
34 0.15
35 0.15
36 0.37
37 0.37
4 -0.34
5 -0.34
6 -0.34
7 -0.57
8 -0.57
9 -0.55

> <PUBCHEM_EFFECTIVE_ROTOR_COUNT>
6.2

> <PUBCHEM_PHARMACOPHORE_FEATURES>
7
1 10 donor
1 7 acceptor
1 8 acceptor
1 9 donor
5 11 12 13 14 15 rings
6 12 14 16 18 20 22 rings
6 13 15 17 19 21 23 rings

> <PUBCHEM_HEAVY_ATOM_COUNT>
27

> <PUBCHEM_ATOM_DEF_STEREO_COUNT>
0

> <PUBCHEM_ATOM_UDEF_STEREO_COUNT>
0

> <PUBCHEM_BOND_DEF_STEREO_COUNT>
0

> <PUBCHEM_BOND_UDEF_STEREO_COUNT>
0

> <PUBCHEM_ISOTOPIC_ATOM_COUNT>
0

> <PUBCHEM_COMPONENT_COUNT>
1

> <PUBCHEM_CACTVS_TAUTO_COUNT>
3

> <PUBCHEM_CONFORMER_ID>
0000264A00000001

> <PUBCHEM_MMFF94_ENERGY>
76.3724

> <PUBCHEM_FEATURE_SELFOVERLAP>
35.685

> <PUBCHEM_SHAPE_FINGERPRINT>
10 15 6843924975336967055
10050765 1 18122625230042345831
106641 1 17895200991840689608
11135926 11 18411706500258119447
11524674 6 16660364766641406839
11963148 33 18410581673339395807
12166972 35 17846777390608082324
12516196 113 18261112993849875168
12760667 363 18407760326991846521
13288520 33 18410574002663993565
13383668 362 18045515118741334816
13533116 47 18334576793939248568
13685833 64 18409166615106320600
13862211 1 18410855460128194277
13885169 127 18409449224070851137
14251764 18 18334010584173850832
14556957 393 16056587811428118175
15131766 46 15432317922896196280
15849732 13 18259985972534387134
16087824 20 18268431403891697173
18335252 114 10807938146137475690
18335252 98 18260265270738235758
18681886 176 18410581668874668617
20028762 73 18260267438515695822
21049683 271 18410852136779322244
21130935 74 18114461283782898578
21150785 3 15770056124822348038
21267235 1 18410570686616821152
21781051 124 18058150770191235667
21792934 111 18187373125341366289
21792961 116 18130514110993868109
22224240 67 16153430545140004094
23035841 295 18411136931432462379
23522609 53 18122592098628864004
23559900 14 18199751349610168833
300161 21 9367347028613774705
3004659 81 18130792239342092737
335352 9 18411419484024049455
3383291 50 18410576179922814898
34797466 226 17385438805449122740
350125 39 18409449189099027141
4073 2 17987232244355721779
4340502 62 14490467582161102588
465052 167 18335979796339833517
5104073 3 18259989296575817664
5758199 1 9727638315040094821
6138700 20 18413108364365744131
636775 8 18271514343198731262

> <PUBCHEM_SHAPE_MULTIPOLES>
490.3
21.7
2.12
0.71
0
0.69
0
-13.15
0.01
0
0
0
-0.15
0

> <PUBCHEM_SHAPE_SELFOVERLAP>
1083.454

> <PUBCHEM_SHAPE_VOLUME>
264

> <PUBCHEM_COORDINATE_TYPE>
2
5
10

$$$$

