583376
  -OEChem-06241222453D

 37 39  0     0  0  0  0  0  0999 V2000
   -5.4552    1.8167    0.8027 O   0  0  0  0  0  0  0  0  0  0  0  0
   -1.1343   -0.1673   -0.0719 N   0  0  0  0  0  0  0  0  0  0  0  0
    1.7401   -0.0330   -0.0148 N   0  0  0  0  0  0  0  0  0  0  0  0
   -0.3263   -1.3769    0.0809 C   0  0  0  0  0  0  0  0  0  0  0  0
   -0.4372    1.1129   -0.1947 C   0  0  0  0  0  0  0  0  0  0  0  0
    1.0183   -1.0573    0.7400 C   0  0  0  0  0  0  0  0  0  0  0  0
    0.9565    0.9212   -0.7993 C   0  0  0  0  0  0  0  0  0  0  0  0
   -2.5249   -0.2324   -0.1007 C   0  0  0  0  0  0  0  0  0  0  0  0
    3.1307    0.0314    0.0121 C   0  0  0  0  0  0  0  0  0  0  0  0
   -3.3216    0.8373    0.3701 C   0  0  0  0  0  0  0  0  0  0  0  0
   -3.1980   -1.3711   -0.6017 C   0  0  0  0  0  0  0  0  0  0  0  0
    3.8655   -0.3903    1.1451 C   0  0  0  0  0  0  0  0  0  0  0  0
    3.8668    0.5204   -1.0926 C   0  0  0  0  0  0  0  0  0  0  0  0
   -4.7146    0.7720    0.3415 C   0  0  0  0  0  0  0  0  0  0  0  0
   -4.5909   -1.4366   -0.6305 C   0  0  0  0  0  0  0  0  0  0  0  0
    5.2586   -0.3266    1.1719 C   0  0  0  0  0  0  0  0  0  0  0  0
    5.2600    0.5841   -1.0658 C   0  0  0  0  0  0  0  0  0  0  0  0
   -5.3493   -0.3649   -0.1588 C   0  0  0  0  0  0  0  0  0  0  0  0
    5.9558    0.1605    0.0665 C   0  0  0  0  0  0  0  0  0  0  0  0
   -0.1614   -1.8285   -0.9052 H   0  0  0  0  0  0  0  0  0  0  0  0
   -0.8407   -2.1151    0.7084 H   0  0  0  0  0  0  0  0  0  0  0  0
   -0.3543    1.5760    0.7964 H   0  0  0  0  0  0  0  0  0  0  0  0
   -0.9927    1.8011   -0.8437 H   0  0  0  0  0  0  0  0  0  0  0  0
    0.8573   -0.7041    1.7661 H   0  0  0  0  0  0  0  0  0  0  0  0
    1.5972   -1.9878    0.7902 H   0  0  0  0  0  0  0  0  0  0  0  0
    0.8700    0.5566   -1.8304 H   0  0  0  0  0  0  0  0  0  0  0  0
    1.4478    1.9016   -0.8280 H   0  0  0  0  0  0  0  0  0  0  0  0
   -2.8475    1.7283    0.7773 H   0  0  0  0  0  0  0  0  0  0  0  0
   -2.6388   -2.2196   -0.9896 H   0  0  0  0  0  0  0  0  0  0  0  0
    3.3543   -0.7635    2.0298 H   0  0  0  0  0  0  0  0  0  0  0  0
    3.3580    0.8467   -1.9968 H   0  0  0  0  0  0  0  0  0  0  0  0
   -5.0855   -2.3204   -1.0227 H   0  0  0  0  0  0  0  0  0  0  0  0
    5.8007   -0.6536    2.0545 H   0  0  0  0  0  0  0  0  0  0  0  0
    5.8035    0.9607   -1.9275 H   0  0  0  0  0  0  0  0  0  0  0  0
   -6.4340   -0.4216   -0.1843 H   0  0  0  0  0  0  0  0  0  0  0  0
    7.0406    0.2101    0.0874 H   0  0  0  0  0  0  0  0  0  0  0  0
   -4.8558    2.5181    1.1104 H   0  0  0  0  0  0  0  0  0  0  0  0
  1 14  1  0  0  0  0
  1 37  1  0  0  0  0
  2  4  1  0  0  0  0
  2  5  1  0  0  0  0
  2  8  1  0  0  0  0
  3  6  1  0  0  0  0
  3  7  1  0  0  0  0
  3  9  1  0  0  0  0
  4  6  1  0  0  0  0
  4 20  1  0  0  0  0
  4 21  1  0  0  0  0
  5  7  1  0  0  0  0
  5 22  1  0  0  0  0
  5 23  1  0  0  0  0
  6 24  1  0  0  0  0
  6 25  1  0  0  0  0
  7 26  1  0  0  0  0
  7 27  1  0  0  0  0
  8 10  2  0  0  0  0
  8 11  1  0  0  0  0
  9 12  2  0  0  0  0
  9 13  1  0  0  0  0
 10 14  1  0  0  0  0
 10 28  1  0  0  0  0
 11 15  2  0  0  0  0
 11 29  1  0  0  0  0
 12 16  1  0  0  0  0
 12 30  1  0  0  0  0
 13 17  2  0  0  0  0
 13 31  1  0  0  0  0
 14 18  2  0  0  0  0
 15 18  1  0  0  0  0
 15 32  1  0  0  0  0
 16 19  2  0  0  0  0
 16 33  1  0  0  0  0
 17 19  1  0  0  0  0
 17 34  1  0  0  0  0
 18 35  1  0  0  0  0
 19 36  1  0  0  0  0
M  END
> <PUBCHEM_COMPOUND_CID>
583376

> <PUBCHEM_CONFORMER_RMSD>
0.6

> <PUBCHEM_CONFORMER_DIVERSEORDER>
1
5
17
4
22
14
11
13
2
8
3
12
7
20
15
23
18
24
6
25
16
9
21
19
10

> <PUBCHEM_MMFF94_PARTIAL_CHARGES>
29
1 -0.53
10 -0.15
11 -0.15
12 -0.15
13 -0.15
14 0.08
15 -0.15
16 -0.15
17 -0.15
18 -0.15
19 -0.15
2 -0.84
28 0.15
29 0.15
3 -0.84
30 0.15
31 0.15
32 0.15
33 0.15
34 0.15
35 0.15
36 0.15
37 0.45
4 0.37
5 0.37
6 0.37
7 0.37
8 0.1
9 0.1

> <PUBCHEM_EFFECTIVE_ROTOR_COUNT>
3.2

> <PUBCHEM_PHARMACOPHORE_FEATURES>
6
1 1 donor
1 2 cation
1 3 cation
6 2 3 4 5 6 7 rings
6 8 10 11 14 15 18 rings
6 9 12 13 16 17 19 rings

> <PUBCHEM_HEAVY_ATOM_COUNT>
19

> <PUBCHEM_ATOM_DEF_STEREO_COUNT>
0

> <PUBCHEM_ATOM_UDEF_STEREO_COUNT>
0

> <PUBCHEM_BOND_DEF_STEREO_COUNT>
0

> <PUBCHEM_BOND_UDEF_STEREO_COUNT>
0

> <PUBCHEM_ISOTOPIC_ATOM_COUNT>
0

> <PUBCHEM_COMPONENT_COUNT>
1

> <PUBCHEM_CACTVS_TAUTO_COUNT>
3

> <PUBCHEM_CONFORMER_ID>
0008E6D000000001

> <PUBCHEM_MMFF94_ENERGY>
75.2565

> <PUBCHEM_FEATURE_SELFOVERLAP>
30.448

> <PUBCHEM_SHAPE_FINGERPRINT>
10090160 65 17561086920966109698
10912923 1 18202004308837826282
11089746 13 18114192942510068065
11287383 113 16877946005780298610
11315181 36 18411139104538175553
12107183 9 17622454156514789992
12236239 1 18343865515430573312
12616971 3 17989768899416994708
13533116 47 17846504764223564450
13760787 5 17632579340178123646
13862211 1 18202007616142154602
1420 363 16515399651307233366
14251764 18 18273211998363898545
14573314 32 17313097574963023900
1601671 61 18408886256404407948
16079462 125 16877953749479746192
17834072 33 18412545375256437788
17844677 252 17748825181044136113
19489759 90 17894631452843050443
200 152 17704078394988340900
20281389 69 18342177786710254665
20612939 158 17774720853168779045
20645477 70 16558760044064583922
21033648 29 15792023314931021315
21267235 1 18336823096843342359
21623969 137 16559026112323476667
21641784 216 16630237125943233566
220451 1 18202843257964354058
2297311 6 17748819705424900985
23081809 10 18272371962299505838
23402539 116 18333454235289589212
23522609 53 18129356307300733796
23536379 177 18186237342519056982
23557571 272 17676758829768377293
23559900 14 17385726889319737866
26918003 58 16487535849063595256
2916195 48 17749401333953631872
29717793 49 18413383246973876630
300161 21 18411986870493901959
3004659 81 18336541712156137486
34797466 226 17313660447770823956
3545911 37 18040149630725298327
4214541 1 18260547814470797465
4340502 62 16515405162357098550
441001 317 17458341974856254897
5104073 3 18130223753160003280
542803 24 18273214196579954554
6327066 14 18124881416115867541

> <PUBCHEM_SHAPE_MULTIPOLES>
375.18
14.69
1.36
1.03
2.2
0
-0.02
-1.49
-0.78
-1.46
-0.02
0.72
-0.03
-1.59

> <PUBCHEM_SHAPE_SELFOVERLAP>
802.848

> <PUBCHEM_SHAPE_VOLUME>
207.3

> <PUBCHEM_COORDINATE_TYPE>
2
5
10

$$$$

