4573
  -OEChem-06261200132D

 27 27  0     1  0  0  0  0  0999 V2000
    3.7320   -0.0600    0.0000 O   0  0  0  0  0  0  0  0  0  0  0  0
    5.4641    2.9400    0.0000 O   0  0  0  0  0  0  0  0  0  0  0  0
    3.7320    2.9400    0.0000 O   0  0  0  0  0  0  0  0  0  0  0  0
    5.4641    0.9400    0.0000 N   0  0  0  0  0  0  0  0  0  0  0  0
    4.5981    1.4400    0.0000 C   0  0  3  0  0  0  0  0  0  0  0  0
    3.7320    0.9400    0.0000 C   0  0  0  0  0  0  0  0  0  0  0  0
    2.8660   -0.5600    0.0000 C   0  0  0  0  0  0  0  0  0  0  0  0
    2.8660   -1.5600    0.0000 C   0  0  0  0  0  0  0  0  0  0  0  0
    2.0000   -2.0600    0.0000 C   0  0  0  0  0  0  0  0  0  0  0  0
    3.7320   -2.0600    0.0000 C   0  0  0  0  0  0  0  0  0  0  0  0
    4.5981    2.4400    0.0000 C   0  0  0  0  0  0  0  0  0  0  0  0
    2.0000   -3.0600    0.0000 C   0  0  0  0  0  0  0  0  0  0  0  0
    3.7320   -3.0600    0.0000 C   0  0  0  0  0  0  0  0  0  0  0  0
    2.8660   -3.5600    0.0000 C   0  0  0  0  0  0  0  0  0  0  0  0
    5.3342    1.8650    0.0000 H   0  0  0  0  0  0  0  0  0  0  0  0
    3.5200    1.5226    0.0000 H   0  0  0  0  0  0  0  0  0  0  0  0
    3.1215    0.8323    0.0000 H   0  0  0  0  0  0  0  0  0  0  0  0
    2.6540    0.0226    0.0000 H   0  0  0  0  0  0  0  0  0  0  0  0
    2.2554   -0.6677    0.0000 H   0  0  0  0  0  0  0  0  0  0  0  0
    1.4631   -1.7500    0.0000 H   0  0  0  0  0  0  0  0  0  0  0  0
    4.2690   -1.7500    0.0000 H   0  0  0  0  0  0  0  0  0  0  0  0
    6.0010    1.2500    0.0000 H   0  0  0  0  0  0  0  0  0  0  0  0
    5.4641    0.3200    0.0000 H   0  0  0  0  0  0  0  0  0  0  0  0
    1.4631   -3.3700    0.0000 H   0  0  0  0  0  0  0  0  0  0  0  0
    4.2690   -3.3700    0.0000 H   0  0  0  0  0  0  0  0  0  0  0  0
    2.8660   -4.1800    0.0000 H   0  0  0  0  0  0  0  0  0  0  0  0
    5.4641    3.5600    0.0000 H   0  0  0  0  0  0  0  0  0  0  0  0
  1  6  1  0  0  0  0
  1  7  1  0  0  0  0
  2 11  1  0  0  0  0
  2 27  1  0  0  0  0
  3 11  2  0  0  0  0
  4  5  1  0  0  0  0
  4 22  1  0  0  0  0
  4 23  1  0  0  0  0
  5  6  1  0  0  0  0
  5 11  1  0  0  0  0
  5 15  1  0  0  0  0
  6 16  1  0  0  0  0
  6 17  1  0  0  0  0
  7  8  1  0  0  0  0
  7 18  1  0  0  0  0
  7 19  1  0  0  0  0
  8  9  2  0  0  0  0
  8 10  1  0  0  0  0
  9 12  1  0  0  0  0
  9 20  1  0  0  0  0
 10 13  2  0  0  0  0
 10 21  1  0  0  0  0
 12 14  2  0  0  0  0
 12 24  1  0  0  0  0
 13 14  1  0  0  0  0
 13 25  1  0  0  0  0
 14 26  1  0  0  0  0
M  END
> <PUBCHEM_COMPOUND_CID>
4573

> <PUBCHEM_COMPOUND_CANONICALIZED>
1

> <PUBCHEM_CACTVS_COMPLEXITY>
178

> <PUBCHEM_CACTVS_HBOND_ACCEPTOR>
4

> <PUBCHEM_CACTVS_HBOND_DONOR>
2

> <PUBCHEM_CACTVS_ROTATABLE_BOND>
5

> <PUBCHEM_CACTVS_SUBSKEYS>
AAADccByMAAAAAAAAAAAAAAAAAAAAAAAAAAwAAAAAAAAAAABAAAAHgAQCAAADCjhmAYwCIBABgCIAiDSCAACAAAgAAAIiIGACIgKJiaAMRiDcAAl8AEIqAeAwCAOAAAAAAAAAAAAAAAAAAAAAAAAAAAAAA==

> <PUBCHEM_IUPAC_OPENEYE_NAME>
2-amino-3-benzyloxy-propanoic acid

> <PUBCHEM_IUPAC_CAS_NAME>
2-amino-3-phenylmethoxypropanoic acid

> <PUBCHEM_IUPAC_NAME>
2-amino-3-phenylmethoxypropanoic acid

> <PUBCHEM_IUPAC_SYSTEMATIC_NAME>
2-azanyl-3-phenylmethoxy-propanoic acid

> <PUBCHEM_IUPAC_TRADITIONAL_NAME>
2-amino-3-benzoxy-propionic acid

> <PUBCHEM_IUPAC_INCHI>
InChI=1S/C10H13NO3/c11-9(10(12)13)7-14-6-8-4-2-1-3-5-8/h1-5,9H,6-7,11H2,(H,12,13)

> <PUBCHEM_IUPAC_INCHIKEY>
IDGQXGPQOGUGIX-UHFFFAOYSA-N

> <PUBCHEM_XLOGP3_AA>
-2

> <PUBCHEM_EXACT_MASS>
195.089543

> <PUBCHEM_MOLECULAR_FORMULA>
C10H13NO3

> <PUBCHEM_MOLECULAR_WEIGHT>
195.21512

> <PUBCHEM_OPENEYE_CAN_SMILES>
C1=CC=C(C=C1)COCC(C(=O)O)N

> <PUBCHEM_OPENEYE_ISO_SMILES>
C1=CC=C(C=C1)COCC(C(=O)O)N

> <PUBCHEM_CACTVS_TPSA>
72.6

> <PUBCHEM_MONOISOTOPIC_WEIGHT>
195.089543

> <PUBCHEM_TOTAL_CHARGE>
0

> <PUBCHEM_HEAVY_ATOM_COUNT>
14

> <PUBCHEM_ATOM_DEF_STEREO_COUNT>
0

> <PUBCHEM_ATOM_UDEF_STEREO_COUNT>
1

> <PUBCHEM_BOND_DEF_STEREO_COUNT>
0

> <PUBCHEM_BOND_UDEF_STEREO_COUNT>
0

> <PUBCHEM_ISOTOPIC_ATOM_COUNT>
0

> <PUBCHEM_COMPONENT_COUNT>
1

> <PUBCHEM_CACTVS_TAUTO_COUNT>
1

> <PUBCHEM_COORDINATE_TYPE>
1
5
255

> <PUBCHEM_BONDANNOTATIONS>
10  13  8
12  14  8
13  14  8
5  15  3
8  10  8
8  9  8
9  12  8

$$$$

