17395362
  -OEChem-06241222493D

 53 56  0     0  0  0  0  0  0999 V2000
    5.2172    0.2216   -0.6839 S   0  0  0  0  0  0  0  0  0  0  0  0
   -5.0664    0.7320    1.4841 O   0  0  0  0  0  0  0  0  0  0  0  0
    0.3656    0.9094    0.4225 N   0  0  0  0  0  0  0  0  0  0  0  0
   -2.2440    0.0287    1.1798 N   0  0  0  0  0  0  0  0  0  0  0  0
    1.7342    2.7947    0.0489 N   0  0  0  0  0  0  0  0  0  0  0  0
    4.0907    2.6250   -0.4890 N   0  0  0  0  0  0  0  0  0  0  0  0
   -5.2462   -0.9714   -0.0845 N   0  0  0  0  0  0  0  0  0  0  0  0
   -0.7814    1.1750   -0.4511 C   0  0  0  0  0  0  0  0  0  0  0  0
    0.0470    0.6827    1.8379 C   0  0  0  0  0  0  0  0  0  0  0  0
    2.9141   -0.7902   -0.1360 C   0  0  0  0  0  0  0  0  0  0  0  0
   -1.8742    0.1247   -0.2375 C   0  0  0  0  0  0  0  0  0  0  0  0
   -1.0716   -0.3524    1.9772 C   0  0  0  0  0  0  0  0  0  0  0  0
    2.7281    0.6331   -0.1281 C   0  0  0  0  0  0  0  0  0  0  0  0
    1.8691   -1.8289    0.1477 C   0  0  0  0  0  0  0  0  0  0  0  0
    1.6171    1.4511    0.1088 C   0  0  0  0  0  0  0  0  0  0  0  0
    2.3122   -3.2283   -0.3060 C   0  0  0  0  0  0  0  0  0  0  0  0
    4.2241   -1.1329   -0.4172 C   0  0  0  0  0  0  0  0  0  0  0  0
    3.7594   -3.5255    0.1097 C   0  0  0  0  0  0  0  0  0  0  0  0
    4.7462   -2.5320   -0.5216 C   0  0  0  0  0  0  0  0  0  0  0  0
    3.9182    1.2908   -0.4163 C   0  0  0  0  0  0  0  0  0  0  0  0
   -3.3255   -0.9385    1.3636 C   0  0  0  0  0  0  0  0  0  0  0  0
   -4.6329   -0.2902    0.9568 C   0  0  0  0  0  0  0  0  0  0  0  0
    2.9505    3.2936   -0.2436 C   0  0  0  0  0  0  0  0  0  0  0  0
   -6.4924   -0.5492   -0.6830 C   0  0  0  0  0  0  0  0  0  0  0  0
   -6.2808    0.4025   -1.8543 C   0  0  0  0  0  0  0  0  0  0  0  0
   -5.4782   -0.2256   -2.9849 C   0  0  0  0  0  0  0  0  0  0  0  0
   -0.4694    1.1497   -1.5024 H   0  0  0  0  0  0  0  0  0  0  0  0
   -1.1741    2.1790   -0.2463 H   0  0  0  0  0  0  0  0  0  0  0  0
   -0.2552    1.6323    2.2979 H   0  0  0  0  0  0  0  0  0  0  0  0
    0.9295    0.3233    2.3811 H   0  0  0  0  0  0  0  0  0  0  0  0
   -1.5269   -0.8463   -0.6156 H   0  0  0  0  0  0  0  0  0  0  0  0
   -2.7381    0.4188   -0.8446 H   0  0  0  0  0  0  0  0  0  0  0  0
   -1.3427   -0.4148    3.0382 H   0  0  0  0  0  0  0  0  0  0  0  0
   -0.7070   -1.3429    1.6766 H   0  0  0  0  0  0  0  0  0  0  0  0
    1.6800   -1.8482    1.2272 H   0  0  0  0  0  0  0  0  0  0  0  0
    0.9306   -1.5855   -0.3596 H   0  0  0  0  0  0  0  0  0  0  0  0
    2.2301   -3.3042   -1.3979 H   0  0  0  0  0  0  0  0  0  0  0  0
    1.6379   -3.9804    0.1189 H   0  0  0  0  0  0  0  0  0  0  0  0
    4.0315   -4.5461   -0.1825 H   0  0  0  0  0  0  0  0  0  0  0  0
    3.8355   -3.4746    1.2035 H   0  0  0  0  0  0  0  0  0  0  0  0
    5.7214   -2.6270   -0.0309 H   0  0  0  0  0  0  0  0  0  0  0  0
    4.8825   -2.7810   -1.5813 H   0  0  0  0  0  0  0  0  0  0  0  0
   -3.1371   -1.8796    0.8340 H   0  0  0  0  0  0  0  0  0  0  0  0
   -3.4476   -1.1905    2.4252 H   0  0  0  0  0  0  0  0  0  0  0  0
    3.0182    4.3750   -0.2859 H   0  0  0  0  0  0  0  0  0  0  0  0
   -4.8060   -1.8031   -0.4663 H   0  0  0  0  0  0  0  0  0  0  0  0
   -7.0172   -1.4524   -1.0118 H   0  0  0  0  0  0  0  0  0  0  0  0
   -7.1066   -0.0614    0.0817 H   0  0  0  0  0  0  0  0  0  0  0  0
   -5.7642    1.3072   -1.5123 H   0  0  0  0  0  0  0  0  0  0  0  0
   -7.2576    0.7148   -2.2408 H   0  0  0  0  0  0  0  0  0  0  0  0
   -4.4626   -0.4781   -2.6651 H   0  0  0  0  0  0  0  0  0  0  0  0
   -5.9620   -1.1373   -3.3493 H   0  0  0  0  0  0  0  0  0  0  0  0
   -5.3993    0.4741   -3.8232 H   0  0  0  0  0  0  0  0  0  0  0  0
  1 17  1  0  0  0  0
  1 20  1  0  0  0  0
  2 22  2  0  0  0  0
  3  8  1  0  0  0  0
  3  9  1  0  0  0  0
  3 15  1  0  0  0  0
  4 11  1  0  0  0  0
  4 12  1  0  0  0  0
  4 21  1  0  0  0  0
  5 15  1  0  0  0  0
  5 23  2  0  0  0  0
  6 20  2  0  0  0  0
  6 23  1  0  0  0  0
  7 22  1  0  0  0  0
  7 24  1  0  0  0  0
  7 46  1  0  0  0  0
  8 11  1  0  0  0  0
  8 27  1  0  0  0  0
  8 28  1  0  0  0  0
  9 12  1  0  0  0  0
  9 29  1  0  0  0  0
  9 30  1  0  0  0  0
 10 13  1  0  0  0  0
 10 14  1  0  0  0  0
 10 17  2  0  0  0  0
 11 31  1  0  0  0  0
 11 32  1  0  0  0  0
 12 33  1  0  0  0  0
 12 34  1  0  0  0  0
 13 15  2  0  0  0  0
 13 20  1  0  0  0  0
 14 16  1  0  0  0  0
 14 35  1  0  0  0  0
 14 36  1  0  0  0  0
 16 18  1  0  0  0  0
 16 37  1  0  0  0  0
 16 38  1  0  0  0  0
 17 19  1  0  0  0  0
 18 19  1  0  0  0  0
 18 39  1  0  0  0  0
 18 40  1  0  0  0  0
 19 41  1  0  0  0  0
 19 42  1  0  0  0  0
 21 22  1  0  0  0  0
 21 43  1  0  0  0  0
 21 44  1  0  0  0  0
 23 45  1  0  0  0  0
 24 25  1  0  0  0  0
 24 47  1  0  0  0  0
 24 48  1  0  0  0  0
 25 26  1  0  0  0  0
 25 49  1  0  0  0  0
 25 50  1  0  0  0  0
 26 51  1  0  0  0  0
 26 52  1  0  0  0  0
 26 53  1  0  0  0  0
M  END
> <PUBCHEM_COMPOUND_CID>
17395362

> <PUBCHEM_CONFORMER_RMSD>
0.8

> <PUBCHEM_CONFORMER_DIVERSEORDER>
2
46
88
93
97
73
49
25
6
28
62
39
59
8
60
78
85
34
101
43
58
75
64
47
23
54
67
51
82
57
94
91
44
71
81
56
27
100
96
37
52
5
24
45
36
92
26
99
87
76
48
32
98
50
61
84
70
66
40
9
65
77
38
3
17
13
16
95
72
42
86
18
12
11
10
74
20
1
90
21
79
33
63
68
29
19
31
53
55
35
15
89
69
30
14
83
22
41
7
80
4

> <PUBCHEM_MMFF94_PARTIAL_CHARGES>
23
1 -0.08
10 -0.18
11 0.27
12 0.27
14 0.18
15 0.41
17 -0.14
19 0.18
2 -0.57
20 0.3
21 0.33
22 0.57
23 0.47
24 0.3
3 -0.84
4 -0.81
45 0.15
46 0.37
5 -0.62
6 -0.57
7 -0.73
8 0.37
9 0.37

> <PUBCHEM_EFFECTIVE_ROTOR_COUNT>
8

> <PUBCHEM_PHARMACOPHORE_FEATURES>
11
1 2 acceptor
1 26 hydrophobe
1 3 cation
1 4 cation
1 6 acceptor
1 7 donor
3 5 6 23 cation
5 1 10 13 17 20 rings
6 10 14 16 17 18 19 rings
6 3 4 8 9 11 12 rings
6 5 6 13 15 20 23 rings

> <PUBCHEM_HEAVY_ATOM_COUNT>
26

> <PUBCHEM_ATOM_DEF_STEREO_COUNT>
0

> <PUBCHEM_ATOM_UDEF_STEREO_COUNT>
0

> <PUBCHEM_BOND_DEF_STEREO_COUNT>
0

> <PUBCHEM_BOND_UDEF_STEREO_COUNT>
0

> <PUBCHEM_ISOTOPIC_ATOM_COUNT>
0

> <PUBCHEM_COMPONENT_COUNT>
1

> <PUBCHEM_CACTVS_TAUTO_COUNT>
2

> <PUBCHEM_CONFORMER_ID>
01096EA200000002

> <PUBCHEM_MMFF94_ENERGY>
52.8465

> <PUBCHEM_FEATURE_SELFOVERLAP>
55.957

> <PUBCHEM_SHAPE_FINGERPRINT>
10411042 1 18123459738843122338
10429389 16 17916029160231758479
10447042 23 18334295387634268926
10622 236 18042972167031385319
11069576 57 18041277759240743902
11135609 149 18195828450956582062
12107183 9 17903057165034301721
12236239 1 17603856810942709816
12596602 18 16805323296935703994
12838862 33 18338521842635498804
13140716 1 18192987124833836912
13533116 47 18261386741515652449
14415360 78 17831308198709739612
14931854 50 17702088365591369026
15183329 4 18412828006233400785
15250474 111 18114181930451473415
15274700 147 15395956841569746493
17134984 74 18335425608484361879
17138139 8 17314524625435158735
17349148 13 16732980912686113501
17857418 61 17821733840632892047
20028762 73 18041275573588109230
20511986 3 17821733827241640001
20645477 70 18341890770945670402
21033650 10 15984814969870006089
21285901 2 17846778511805127156
22061861 79 18342178873552907935
22224240 67 18187931626198935008
23557571 272 17132111338133599397
23559900 14 18341605975891045120
23569914 152 17479487941601447383
3882209 13 17194065747489971947
4015057 19 18411415112079541315
4098825 35 18411140252069877829
439807 62 18115030685331457191
46194498 28 17703214131688697549
495365 180 18265614282294626712
5283384 97 18334577970549239127
8272917 22 18337092515250669880

> <PUBCHEM_SHAPE_MULTIPOLES>
508.14
14.59
3.27
1.71
21.88
0.49
-0.37
3.23
-6.85
-6.8
-0.34
3.67
0.03
0.03

> <PUBCHEM_SHAPE_SELFOVERLAP>
1062.836

> <PUBCHEM_SHAPE_VOLUME>
289.8

> <PUBCHEM_COORDINATE_TYPE>
2
5
10

$$$$

