9875
  -OEChem-06261204093D

 60 63  0     1  0  0  0  0  0999 V2000
    3.7129    3.4074    0.2501 Cl  0  0  0  0  0  0  0  0  0  0  0  0
   -3.9310   -0.5543   -0.9363 O   0  0  0  0  0  0  0  0  0  0  0  0
   -3.1933   -0.0164    2.3361 O   0  0  0  0  0  0  0  0  0  0  0  0
    6.8524   -0.5326   -1.0750 O   0  0  0  0  0  0  0  0  0  0  0  0
   -5.5743    0.5468    0.2571 O   0  0  0  0  0  0  0  0  0  0  0  0
   -1.4711   -0.4463   -0.4525 C   0  0  2  0  0  0  0  0  0  0  0  0
   -0.6383    0.8622   -0.2239 C   0  0  2  0  0  0  0  0  0  0  0  0
    0.7041    0.6473    0.5251 C   0  0  1  0  0  0  0  0  0  0  0  0
   -2.9398   -0.0617   -0.0453 C   0  0  1  0  0  0  0  0  0  0  0  0
    1.4346   -0.5790   -0.0626 C   0  0  2  0  0  0  0  0  0  0  0  0
   -1.5756    1.8260    0.5217 C   0  0  0  0  0  0  0  0  0  0  0  0
   -2.9785    1.4771    0.0279 C   0  0  1  0  0  0  0  0  0  0  0  0
   -0.8881   -1.6049    0.3920 C   0  0  0  0  0  0  0  0  0  0  0  0
    0.6050   -1.8640    0.1559 C   0  0  0  0  0  0  0  0  0  0  0  0
    2.9329   -0.6766    0.3946 C   0  0  2  0  0  0  0  0  0  0  0  0
   -1.4022   -0.8566   -1.9455 C   0  0  0  0  0  0  0  0  0  0  0  0
    1.5710    1.8802    0.4804 C   0  0  0  0  0  0  0  0  0  0  0  0
    3.6548    0.6345    0.0191 C   0  0  0  0  0  0  0  0  0  0  0  0
   -3.3832   -0.6234    1.2833 C   0  0  0  0  0  0  0  0  0  0  0  0
    3.5883   -1.8763   -0.3436 C   0  0  0  0  0  0  0  0  0  0  0  0
   -3.3159    2.1794   -1.2882 C   0  0  0  0  0  0  0  0  0  0  0  0
    3.0653   -0.8807    1.9237 C   0  0  0  0  0  0  0  0  0  0  0  0
    2.8910    1.8709    0.2289 C   0  0  0  0  0  0  0  0  0  0  0  0
    5.1014   -1.9092   -0.2093 C   0  0  0  0  0  0  0  0  0  0  0  0
    4.9066    0.6418   -0.4784 C   0  0  0  0  0  0  0  0  0  0  0  0
   -4.0714   -1.9613    1.2567 C   0  0  0  0  0  0  0  0  0  0  0  0
    5.7028   -0.5999   -0.6426 C   0  0  0  0  0  0  0  0  0  0  0  0
   -5.2148   -0.1701   -0.6670 C   0  0  0  0  0  0  0  0  0  0  0  0
   -6.1456   -0.7603   -1.6825 C   0  0  0  0  0  0  0  0  0  0  0  0
   -0.4182    1.3135   -1.2027 H   0  0  0  0  0  0  0  0  0  0  0  0
    0.4846    0.4599    1.5850 H   0  0  0  0  0  0  0  0  0  0  0  0
    1.4681   -0.4230   -1.1532 H   0  0  0  0  0  0  0  0  0  0  0  0
   -1.5010    1.6781    1.6049 H   0  0  0  0  0  0  0  0  0  0  0  0
   -1.3195    2.8726    0.3246 H   0  0  0  0  0  0  0  0  0  0  0  0
   -3.6855    1.8606    0.7736 H   0  0  0  0  0  0  0  0  0  0  0  0
   -1.4358   -2.5361    0.2054 H   0  0  0  0  0  0  0  0  0  0  0  0
   -1.0027   -1.3879    1.4612 H   0  0  0  0  0  0  0  0  0  0  0  0
    0.9762   -2.4428    1.0074 H   0  0  0  0  0  0  0  0  0  0  0  0
    0.7267   -2.5154   -0.7189 H   0  0  0  0  0  0  0  0  0  0  0  0
   -1.9356   -1.7989   -2.1152 H   0  0  0  0  0  0  0  0  0  0  0  0
   -1.8527   -0.1029   -2.5974 H   0  0  0  0  0  0  0  0  0  0  0  0
   -0.3750   -0.9982   -2.2923 H   0  0  0  0  0  0  0  0  0  0  0  0
    1.0772    2.8269    0.6891 H   0  0  0  0  0  0  0  0  0  0  0  0
    3.3394   -1.8270   -1.4132 H   0  0  0  0  0  0  0  0  0  0  0  0
    3.1844   -2.8272    0.0242 H   0  0  0  0  0  0  0  0  0  0  0  0
   -3.2027    3.2634   -1.1689 H   0  0  0  0  0  0  0  0  0  0  0  0
   -2.6527    1.8804   -2.1032 H   0  0  0  0  0  0  0  0  0  0  0  0
   -4.3451    2.0124   -1.6123 H   0  0  0  0  0  0  0  0  0  0  0  0
    2.6853   -1.8580    2.2374 H   0  0  0  0  0  0  0  0  0  0  0  0
    4.1109   -0.8261    2.2484 H   0  0  0  0  0  0  0  0  0  0  0  0
    2.5242   -0.1196    2.4947 H   0  0  0  0  0  0  0  0  0  0  0  0
    5.4997   -2.7025   -0.8519 H   0  0  0  0  0  0  0  0  0  0  0  0
    5.4143   -2.1163    0.8186 H   0  0  0  0  0  0  0  0  0  0  0  0
    5.4205    1.5513   -0.7703 H   0  0  0  0  0  0  0  0  0  0  0  0
   -5.1553   -1.8485    1.3208 H   0  0  0  0  0  0  0  0  0  0  0  0
   -3.8003   -2.5572    0.3820 H   0  0  0  0  0  0  0  0  0  0  0  0
   -3.7382   -2.5281    2.1328 H   0  0  0  0  0  0  0  0  0  0  0  0
   -6.0950   -1.8512   -1.6408 H   0  0  0  0  0  0  0  0  0  0  0  0
   -5.8814   -0.3998   -2.6797 H   0  0  0  0  0  0  0  0  0  0  0  0
   -7.1702   -0.4498   -1.4590 H   0  0  0  0  0  0  0  0  0  0  0  0
  1 23  1  0  0  0  0
  2  9  1  0  0  0  0
  2 28  1  0  0  0  0
  3 19  2  0  0  0  0
  4 27  2  0  0  0  0
  5 28  2  0  0  0  0
  6  7  1  0  0  0  0
  6  9  1  0  0  0  0
  6 13  1  0  0  0  0
  6 16  1  0  0  0  0
  7  8  1  0  0  0  0
  7 11  1  0  0  0  0
  7 30  1  0  0  0  0
  8 10  1  0  0  0  0
  8 17  1  0  0  0  0
  8 31  1  0  0  0  0
  9 12  1  0  0  0  0
  9 19  1  0  0  0  0
 10 14  1  0  0  0  0
 10 15  1  0  0  0  0
 10 32  1  0  0  0  0
 11 12  1  0  0  0  0
 11 33  1  0  0  0  0
 11 34  1  0  0  0  0
 12 21  1  0  0  0  0
 12 35  1  0  0  0  0
 13 14  1  0  0  0  0
 13 36  1  0  0  0  0
 13 37  1  0  0  0  0
 14 38  1  0  0  0  0
 14 39  1  0  0  0  0
 15 18  1  0  0  0  0
 15 20  1  0  0  0  0
 15 22  1  0  0  0  0
 16 40  1  0  0  0  0
 16 41  1  0  0  0  0
 16 42  1  0  0  0  0
 17 23  2  0  0  0  0
 17 43  1  0  0  0  0
 18 23  1  0  0  0  0
 18 25  2  0  0  0  0
 19 26  1  0  0  0  0
 20 24  1  0  0  0  0
 20 44  1  0  0  0  0
 20 45  1  0  0  0  0
 21 46  1  0  0  0  0
 21 47  1  0  0  0  0
 21 48  1  0  0  0  0
 22 49  1  0  0  0  0
 22 50  1  0  0  0  0
 22 51  1  0  0  0  0
 24 27  1  0  0  0  0
 24 52  1  0  0  0  0
 24 53  1  0  0  0  0
 25 27  1  0  0  0  0
 25 54  1  0  0  0  0
 26 55  1  0  0  0  0
 26 56  1  0  0  0  0
 26 57  1  0  0  0  0
 28 29  1  0  0  0  0
 29 58  1  0  0  0  0
 29 59  1  0  0  0  0
 29 60  1  0  0  0  0
M  END
> <PUBCHEM_COMPOUND_CID>
9875

> <PUBCHEM_CONFORMER_RMSD>
0.8

> <PUBCHEM_CONFORMER_DIVERSEORDER>
2
22
13
5
25
19
16
7
17
3
14
8
18
12
21
6
20
9
1
24
23
10
15
11
4

> <PUBCHEM_MMFF94_PARTIAL_CHARGES>
20
1 -0.14
15 0.14
17 -0.29
18 -0.14
19 0.45
2 -0.43
23 0.14
24 0.06
25 -0.14
26 0.06
27 0.49
28 0.66
29 0.06
3 -0.57
4 -0.57
43 0.15
5 -0.57
54 0.15
8 0.14
9 0.34

> <PUBCHEM_EFFECTIVE_ROTOR_COUNT>
4.4

> <PUBCHEM_PHARMACOPHORE_FEATURES>
7
1 3 acceptor
1 4 acceptor
1 5 acceptor
5 6 7 9 11 12 rings
6 15 18 20 24 25 27 rings
6 6 7 8 10 13 14 rings
6 8 10 15 17 18 23 rings

> <PUBCHEM_HEAVY_ATOM_COUNT>
29

> <PUBCHEM_ATOM_DEF_STEREO_COUNT>
4

> <PUBCHEM_ATOM_UDEF_STEREO_COUNT>
3

> <PUBCHEM_BOND_DEF_STEREO_COUNT>
0

> <PUBCHEM_BOND_UDEF_STEREO_COUNT>
0

> <PUBCHEM_ISOTOPIC_ATOM_COUNT>
0

> <PUBCHEM_COMPONENT_COUNT>
1

> <PUBCHEM_CACTVS_TAUTO_COUNT>
4

> <PUBCHEM_CONFORMER_ID>
0000269300000002

> <PUBCHEM_MMFF94_ENERGY>
106.8278

> <PUBCHEM_FEATURE_SELFOVERLAP>
35.623

> <PUBCHEM_SHAPE_FINGERPRINT>
10366900 7 18131353033232162817
11045977 3 18273210868086094235
11315181 36 17775278365972846614
12011746 2 18272371970915866255
12107698 1 18334297586657414092
12166972 35 17749394753858259393
12236239 1 17603586313675417809
12403259 415 18273223005732498037
12596602 18 16588031190415107514
12788726 201 18271814587372410361
13224815 77 18344148089692195049
13533116 47 18041565741119066872
13583140 156 18341890809510795951
13782708 43 18131353015994914555
14294032 229 16371832132572168033
14341114 176 18343576348088418289
15196674 1 18409169947616008756
15788980 27 18335138708905206462
17349148 13 16877948230357119285
17844677 252 18334853931104400572
1813 80 18040987497456589012
18222031 100 18260275152497946546
18608769 82 18200305512134277666
18681886 176 18260274040576060128
200 152 18040721364023879627
20028762 73 17967821547805214638
20612939 158 18335980874930817860
20645477 70 18410582764397231940
21033648 29 17845948367477899469
21267235 1 18334289868479668943
21424621 283 16700907175431397557
21682296 61 18042395997216009198
21792961 116 18200587116730244390
221357 26 18409735075091534068
221490 88 18411976945320522168
22393880 68 18202006542284091216
23522609 53 17970038146019605248
23559900 14 18131633361531908377
23569914 152 17474135540155707551
23569943 247 17243561273480547278
300161 21 15698001842220231122
3004659 81 18410580582300689864
335352 9 18408602573809122333
34797466 226 16558453249860225606
350125 39 18411134761862418460
3633792 109 18334303063052108645
4015057 19 18338803317137481953
5104073 3 18410857680790148864
9709674 26 18412266125020032425

> <PUBCHEM_SHAPE_MULTIPOLES>
575.2
13.45
2.52
1.44
1.9
1.41
0.2
-2.34
-3.63
1.82
0.17
-1.23
-0.35
0.66

> <PUBCHEM_SHAPE_SELFOVERLAP>
1234.463

> <PUBCHEM_SHAPE_VOLUME>
317.1

> <PUBCHEM_COORDINATE_TYPE>
2
5
10

$$$$

