17396120
  -OEChem-06241222543D

 50 52  0     1  0  0  0  0  0999 V2000
    4.5866    0.6781    2.3602 Br  0  0  0  0  0  0  0  0  0  0  0  0
   -3.3635   -0.9831    1.4533 S   0  0  0  0  0  0  0  0  0  0  0  0
   -2.4562   -1.3358    2.5305 O   0  0  0  0  0  0  0  0  0  0  0  0
   -4.7641   -0.7189    1.7301 O   0  0  0  0  0  0  0  0  0  0  0  0
    1.0443    3.1330    0.6932 O   0  0  0  0  0  0  0  0  0  0  0  0
   -3.2392   -2.1293    0.2061 N   0  0  0  0  0  0  0  0  0  0  0  0
    1.4720    1.1084   -0.3530 N   0  0  0  0  0  0  0  0  0  0  0  0
   -3.9713   -1.8657   -1.0673 C   0  0  0  0  0  0  0  0  0  0  0  0
   -1.8841   -2.6483   -0.1267 C   0  0  0  0  0  0  0  0  0  0  0  0
   -2.9544   -2.1238   -2.1712 C   0  0  0  0  0  0  0  0  0  0  0  0
   -2.0238   -3.1502   -1.5551 C   0  0  0  0  0  0  0  0  0  0  0  0
   -2.7002    0.4437    0.6470 C   0  0  0  0  0  0  0  0  0  0  0  0
   -1.3326    0.7102    0.7132 C   0  0  0  0  0  0  0  0  0  0  0  0
   -3.5453    1.3037   -0.0545 C   0  0  0  0  0  0  0  0  0  0  0  0
   -0.8099    1.8365    0.0776 C   0  0  0  0  0  0  0  0  0  0  0  0
   -1.6549    2.6963   -0.6241 C   0  0  0  0  0  0  0  0  0  0  0  0
   -3.0228    2.4302   -0.6901 C   0  0  0  0  0  0  0  0  0  0  0  0
    2.9137    1.2045   -0.3212 C   0  0  1  0  0  0  0  0  0  0  0  0
    0.6217    2.0918    0.1630 C   0  0  0  0  0  0  0  0  0  0  0  0
   -1.1217    3.9102   -1.3131 C   0  0  0  0  0  0  0  0  0  0  0  0
    3.5568   -0.1600   -0.1987 C   0  0  0  0  0  0  0  0  0  0  0  0
    3.4148    1.9821   -1.5366 C   0  0  0  0  0  0  0  0  0  0  0  0
    4.3126   -0.5212    0.9168 C   0  0  0  0  0  0  0  0  0  0  0  0
    3.3762   -1.0678   -1.2423 C   0  0  0  0  0  0  0  0  0  0  0  0
    4.8876   -1.7900    0.9886 C   0  0  0  0  0  0  0  0  0  0  0  0
    3.9508   -2.3370   -1.1705 C   0  0  0  0  0  0  0  0  0  0  0  0
    4.7067   -2.6979   -0.0550 C   0  0  0  0  0  0  0  0  0  0  0  0
   -4.7856   -2.5976   -1.1283 H   0  0  0  0  0  0  0  0  0  0  0  0
   -4.4204   -0.8795   -1.1545 H   0  0  0  0  0  0  0  0  0  0  0  0
   -1.6056   -3.4574    0.5540 H   0  0  0  0  0  0  0  0  0  0  0  0
   -1.1235   -1.8666   -0.0857 H   0  0  0  0  0  0  0  0  0  0  0  0
   -3.4213   -2.4743   -3.0958 H   0  0  0  0  0  0  0  0  0  0  0  0
   -2.4014   -1.2032   -2.3942 H   0  0  0  0  0  0  0  0  0  0  0  0
   -1.0624   -3.2167   -2.0718 H   0  0  0  0  0  0  0  0  0  0  0  0
   -2.4930   -4.1413   -1.5675 H   0  0  0  0  0  0  0  0  0  0  0  0
   -0.6688    0.0507    1.2667 H   0  0  0  0  0  0  0  0  0  0  0  0
   -4.6159    1.1289   -0.1077 H   0  0  0  0  0  0  0  0  0  0  0  0
   -3.6955    3.0928   -1.2283 H   0  0  0  0  0  0  0  0  0  0  0  0
    3.1522    1.8392    0.5327 H   0  0  0  0  0  0  0  0  0  0  0  0
    1.0516    0.2984   -0.8008 H   0  0  0  0  0  0  0  0  0  0  0  0
   -1.8704    4.3593   -1.9753 H   0  0  0  0  0  0  0  0  0  0  0  0
   -0.2589    3.6588   -1.9390 H   0  0  0  0  0  0  0  0  0  0  0  0
   -0.8312    4.6690   -0.5796 H   0  0  0  0  0  0  0  0  0  0  0  0
    4.5074    2.0638   -1.5286 H   0  0  0  0  0  0  0  0  0  0  0  0
    3.0024    2.9977   -1.5459 H   0  0  0  0  0  0  0  0  0  0  0  0
    3.1183    1.5111   -2.4804 H   0  0  0  0  0  0  0  0  0  0  0  0
    2.7871   -0.8127   -2.1190 H   0  0  0  0  0  0  0  0  0  0  0  0
    5.4798   -2.0896    1.8496 H   0  0  0  0  0  0  0  0  0  0  0  0
    3.8087   -3.0445   -1.9820 H   0  0  0  0  0  0  0  0  0  0  0  0
    5.1539   -3.6861    0.0010 H   0  0  0  0  0  0  0  0  0  0  0  0
  1 23  1  0  0  0  0
  2  3  2  0  0  0  0
  2  4  2  0  0  0  0
  2  6  1  0  0  0  0
  2 12  1  0  0  0  0
  5 19  2  0  0  0  0
  6  8  1  0  0  0  0
  6  9  1  0  0  0  0
  7 18  1  0  0  0  0
  7 19  1  0  0  0  0
  7 40  1  0  0  0  0
  8 10  1  0  0  0  0
  8 28  1  0  0  0  0
  8 29  1  0  0  0  0
  9 11  1  0  0  0  0
  9 30  1  0  0  0  0
  9 31  1  0  0  0  0
 10 11  1  0  0  0  0
 10 32  1  0  0  0  0
 10 33  1  0  0  0  0
 11 34  1  0  0  0  0
 11 35  1  0  0  0  0
 12 13  2  0  0  0  0
 12 14  1  0  0  0  0
 13 15  1  0  0  0  0
 13 36  1  0  0  0  0
 14 17  2  0  0  0  0
 14 37  1  0  0  0  0
 15 16  2  0  0  0  0
 15 19  1  0  0  0  0
 16 17  1  0  0  0  0
 16 20  1  0  0  0  0
 17 38  1  0  0  0  0
 18 21  1  0  0  0  0
 18 22  1  0  0  0  0
 18 39  1  0  0  0  0
 20 41  1  0  0  0  0
 20 42  1  0  0  0  0
 20 43  1  0  0  0  0
 21 23  1  0  0  0  0
 21 24  2  0  0  0  0
 22 44  1  0  0  0  0
 22 45  1  0  0  0  0
 22 46  1  0  0  0  0
 23 25  2  0  0  0  0
 24 26  1  0  0  0  0
 24 47  1  0  0  0  0
 25 27  1  0  0  0  0
 25 48  1  0  0  0  0
 26 27  2  0  0  0  0
 26 49  1  0  0  0  0
 27 50  1  0  0  0  0
M  END
> <PUBCHEM_COMPOUND_CID>
17396120

> <PUBCHEM_CONFORMER_RMSD>
0.8

> <PUBCHEM_CONFORMER_DIVERSEORDER>
3
243
160
253
389
316
191
144
88
68
331
174
420
210
394
29
355
385
357
280
158
324
250
310
130
345
216
47
220
146
175
26
309
135
180
381
121
356
259
376
267
341
281
321
150
92
212
295
198
352
124
395
195
311
284
249
358
207
392
402
246
223
60
305
368
269
95
163
366
82
34
370
181
422
337
49
365
187
213
235
403
282
94
204
335
332
339
379
209
234
286
292
382
373
228
367
401
219
145
103
63
172
399
136
347
323
189
303
417
410
278
270
262
184
312
288
115
70
75
208
290
224
152
45
289
155
307
154
211
306
233
378
165
271
300
18
336
205
260
238
409
99
33
89
193
159
302
230
330
185
66
194
404
214
412
239
113
255
190
257
183
109
19
252
388
407
393
101
304
405
169
81
51
297
128
36
27
221
294
170
319
348
251
39
79
112
1
108
293
201
31
285
416
296
372
396
64
153
131
148
137
423
322
30
215
84
245
147
186
326
329
277
346
418
327
383
266
200
141
374
139
283
247
333
291
142
421
222
408
258
97
308
72
102
375
268
173
397
149
177
254
237
202
57
353
299
10
168
371
78
100
123
279
197
360
272
236
91
122
218
351
199
390
386
248
240
164
4
274
369
398
86
318
118
74
7
340
151
242
359
206
41
414
317
241
106
119
232
71
411
419
54
287
313
58
98
176
256
138
96
69
275
143
384
52
182
413
362
350
363
12
25
338
315
263
342
192
117
161
364
116
227
415
9
24
17
22
16
156
125
349
406
301
61
276
48
261
231
334
325
264
229
2
44
196
65
5
42
361
134
50
188
59
162
11
38
344
217
244
15
110
43
127
28
273
73
166
85
80
179
67
14
20
104
377
226
93
140
391
354
133
21
387
107
314
265
126
298
157
400
40
171
87
328
90
37
225
132
77
55
6
76
13
62
8
178
120
23
320
83
56
35
105
53
129
32
380
343
111
203
46
167
114

> <PUBCHEM_MMFF94_PARTIAL_CHARGES>
32
1 -0.11
12 -0.01
13 -0.15
14 -0.15
15 0.09
16 -0.14
17 -0.15
18 0.44
19 0.54
2 1.45
20 0.14
21 -0.14
23 0.11
24 -0.15
25 -0.15
26 -0.15
27 -0.15
3 -0.65
36 0.15
37 0.15
38 0.15
4 -0.65
40 0.37
47 0.15
48 0.15
49 0.15
5 -0.57
50 0.15
6 -0.85
7 -0.73
8 0.36
9 0.36

> <PUBCHEM_EFFECTIVE_ROTOR_COUNT>
7

> <PUBCHEM_PHARMACOPHORE_FEATURES>
8
1 1 hydrophobe
1 3 acceptor
1 4 acceptor
1 5 acceptor
1 7 donor
5 6 8 9 10 11 rings
6 12 13 14 15 16 17 rings
6 21 23 24 25 26 27 rings

> <PUBCHEM_HEAVY_ATOM_COUNT>
27

> <PUBCHEM_ATOM_DEF_STEREO_COUNT>
0

> <PUBCHEM_ATOM_UDEF_STEREO_COUNT>
1

> <PUBCHEM_BOND_DEF_STEREO_COUNT>
0

> <PUBCHEM_BOND_UDEF_STEREO_COUNT>
0

> <PUBCHEM_ISOTOPIC_ATOM_COUNT>
0

> <PUBCHEM_COMPONENT_COUNT>
1

> <PUBCHEM_CACTVS_TAUTO_COUNT>
2

> <PUBCHEM_CONFORMER_ID>
0109719800000003

> <PUBCHEM_MMFF94_ENERGY>
61.9121

> <PUBCHEM_FEATURE_SELFOVERLAP>
40.612

> <PUBCHEM_SHAPE_FINGERPRINT>
107951 10 17629755932242335889
10928967 22 18334844001113820718
11552529 35 17240773826265944438
12156800 1 16596816361652168815
12422481 6 18190998249695819395
12553582 1 18267578009903039388
12633257 1 17895178992263935589
13583140 156 17822593641588369128
13692114 37 18119531192218500817
14950920 106 17022903480014159442
15537594 2 18266157479571594782
19315092 285 16592274055895045047
20764821 26 18335420187929368174
20775530 9 18412536618161136060
21315759 227 17488176002852219074
21458453 9 17972068910553345184
23559900 14 18269836574902704156
3298306 158 17982172528400051117
44062 13 18200308964992304900
463206 1 18338229341591405730
508706 21 18337953505701357910
5309563 4 17619338814903816211
7064713 232 17603852425728580411
9709674 26 18272925033955052344

> <PUBCHEM_SHAPE_MULTIPOLES>
537.87
10.7
4.47
1.98
7.92
0.91
0.62
-6.08
2.33
-1.82
-2.07
-0.15
-0.56
0.35

> <PUBCHEM_SHAPE_SELFOVERLAP>
1115.304

> <PUBCHEM_SHAPE_VOLUME>
313.1

> <PUBCHEM_COORDINATE_TYPE>
2
5
10

$$$$

