11611
  -OEChem-06261205533D

 21 20  0     0  0  0  0  0  0999 V2000
    1.1724    0.2140    0.2073 C   0  0  0  0  0  0  0  0  0  0  0  0
    2.5198   -0.3787   -0.2125 C   0  0  0  0  0  0  0  0  0  0  0  0
    0.0073   -0.7667    0.0424 C   0  0  0  0  0  0  0  0  0  0  0  0
    3.6453    0.6306   -0.0450 C   0  0  0  0  0  0  0  0  0  0  0  0
   -1.3166   -0.1756    0.4329 C   0  0  0  0  0  0  0  0  0  0  0  0
   -2.3553   -0.0540   -0.4064 C   0  0  0  0  0  0  0  0  0  0  0  0
   -3.6729    0.5305   -0.0187 C   0  0  0  0  0  0  0  0  0  0  0  0
    1.2300    0.5375    1.2547 H   0  0  0  0  0  0  0  0  0  0  0  0
    0.9740    1.1141   -0.3889 H   0  0  0  0  0  0  0  0  0  0  0  0
    2.7375   -1.2678    0.3903 H   0  0  0  0  0  0  0  0  0  0  0  0
    2.4745   -0.6984   -1.2599 H   0  0  0  0  0  0  0  0  0  0  0  0
    0.1861   -1.6496    0.6683 H   0  0  0  0  0  0  0  0  0  0  0  0
   -0.0217   -1.1208   -0.9956 H   0  0  0  0  0  0  0  0  0  0  0  0
    3.4710    1.5188   -0.6606 H   0  0  0  0  0  0  0  0  0  0  0  0
    3.7357    0.9478    0.9988 H   0  0  0  0  0  0  0  0  0  0  0  0
    4.5991    0.1882   -0.3494 H   0  0  0  0  0  0  0  0  0  0  0  0
   -1.4187    0.1580    1.4626 H   0  0  0  0  0  0  0  0  0  0  0  0
   -2.2572   -0.3908   -1.4350 H   0  0  0  0  0  0  0  0  0  0  0  0
   -4.4664   -0.2082   -0.1677 H   0  0  0  0  0  0  0  0  0  0  0  0
   -3.8922    1.4016   -0.6435 H   0  0  0  0  0  0  0  0  0  0  0  0
   -3.6946    0.8478    1.0286 H   0  0  0  0  0  0  0  0  0  0  0  0
  1  2  1  0  0  0  0
  1  3  1  0  0  0  0
  1  8  1  0  0  0  0
  1  9  1  0  0  0  0
  2  4  1  0  0  0  0
  2 10  1  0  0  0  0
  2 11  1  0  0  0  0
  3  5  1  0  0  0  0
  3 12  1  0  0  0  0
  3 13  1  0  0  0  0
  4 14  1  0  0  0  0
  4 15  1  0  0  0  0
  4 16  1  0  0  0  0
  5  6  2  0  0  0  0
  5 17  1  0  0  0  0
  6  7  1  0  0  0  0
  6 18  1  0  0  0  0
  7 19  1  0  0  0  0
  7 20  1  0  0  0  0
  7 21  1  0  0  0  0
M  END
> <PUBCHEM_COMPOUND_CID>
11611

> <PUBCHEM_CONFORMER_RMSD>
0.4

> <PUBCHEM_CONFORMER_DIVERSEORDER>
1
9
7
3
5
4
10
6
8
2

> <PUBCHEM_MMFF94_PARTIAL_CHARGES>
6
17 0.15
18 0.15
3 0.14
5 -0.29
6 -0.29
7 0.14

> <PUBCHEM_EFFECTIVE_ROTOR_COUNT>
3

> <PUBCHEM_PHARMACOPHORE_FEATURES>
3
1 4 hydrophobe
1 7 hydrophobe
4 1 2 3 5 hydrophobe

> <PUBCHEM_HEAVY_ATOM_COUNT>
7

> <PUBCHEM_ATOM_DEF_STEREO_COUNT>
0

> <PUBCHEM_ATOM_UDEF_STEREO_COUNT>
0

> <PUBCHEM_BOND_DEF_STEREO_COUNT>
0

> <PUBCHEM_BOND_UDEF_STEREO_COUNT>
1

> <PUBCHEM_ISOTOPIC_ATOM_COUNT>
0

> <PUBCHEM_COMPONENT_COUNT>
1

> <PUBCHEM_CACTVS_TAUTO_COUNT>
1

> <PUBCHEM_CONFORMER_ID>
00002D5B00000001

> <PUBCHEM_MMFF94_ENERGY>
-3.1817

> <PUBCHEM_FEATURE_SELFOVERLAP>
15.223

> <PUBCHEM_SHAPE_FINGERPRINT>
11062470 55 17894068502546809184
12932764 1 16443073819439881731
14325111 11 18411982459578514579
14390081 3 18272371983579169973
177051 138 9223235147952744168
20211469 26 9727634994803553889
21293036 1 17822011995035308877
22485316 2 7997969055071417013
29004967 10 8718828699483785110
5460574 1 9511463320564563578

> <PUBCHEM_SHAPE_MULTIPOLES>
144.06
6.59
0.83
0.68
0.16
0.01
0
-1.83
0.49
0.11
0
-0.07
0.01
0.03

> <PUBCHEM_SHAPE_SELFOVERLAP>
249.188

> <PUBCHEM_SHAPE_VOLUME>
96.4

> <PUBCHEM_COORDINATE_TYPE>
2
5
10

$$$$

