3900
  -OEChem-06251223453D

 55 58  0     1  0  0  0  0  0999 V2000
    0.9266    1.1562   -1.1290 S   0  0  0  0  0  0  0  0  0  0  0  0
    0.5053   -2.7848    0.7917 O   0  0  0  0  0  0  0  0  0  0  0  0
   -3.4623   -0.3607   -0.2376 O   0  0  0  0  0  0  0  0  0  0  0  0
   -2.4936   -2.0667   -1.4572 O   0  0  0  0  0  0  0  0  0  0  0  0
    4.3901   -2.4677    0.4623 O   0  0  0  0  0  0  0  0  0  0  0  0
   -5.6789    1.3304   -0.0164 O   0  0  0  0  0  0  0  0  0  0  0  0
   -7.5840    0.7569    1.1922 O   0  0  0  0  0  0  0  0  0  0  0  0
   -7.0674    2.9590    0.8091 O   0  0  0  0  0  0  0  0  0  0  0  0
   -0.0585   -1.2315   -0.8933 N   0  0  0  0  0  0  0  0  0  0  0  0
    2.8817   -0.7475    0.0849 N   0  0  0  0  0  0  0  0  0  0  0  0
    3.7634    0.5121    2.2245 N   0  0  0  0  0  0  0  0  0  0  0  0
    1.0431   -0.6011   -1.6265 C   0  0  2  0  0  0  0  0  0  0  0  0
   -0.9222    1.0219   -0.9464 C   0  0  0  0  0  0  0  0  0  0  0  0
   -1.1308   -0.4008   -0.3844 C   0  0  1  0  0  0  0  0  0  0  0  0
    2.0019   -1.4861   -0.8181 C   0  0  2  0  0  0  0  0  0  0  0  0
    0.7362   -2.0423   -0.1355 C   0  0  0  0  0  0  0  0  0  0  0  0
   -1.4032    2.0873    0.0405 C   0  0  0  0  0  0  0  0  0  0  0  0
   -1.5514    1.2605   -2.3258 C   0  0  0  0  0  0  0  0  0  0  0  0
   -2.4181   -1.0579   -0.7689 C   0  0  0  0  0  0  0  0  0  0  0  0
    4.0232   -1.3104    0.6601 C   0  0  0  0  0  0  0  0  0  0  0  0
    4.7624   -0.3465    1.5819 C   0  0  1  0  0  0  0  0  0  0  0  0
   -4.7624   -0.8828   -0.5296 C   0  0  0  0  0  0  0  0  0  0  0  0
    5.7979    0.4482    0.8136 C   0  0  0  0  0  0  0  0  0  0  0  0
   -5.8096   -0.0388    0.1026 C   0  0  0  0  0  0  0  0  0  0  0  0
    7.0835   -0.0506    0.7010 C   0  0  0  0  0  0  0  0  0  0  0  0
    5.4344    1.6543    0.2416 C   0  0  0  0  0  0  0  0  0  0  0  0
   -6.8866   -0.3630    0.7859 C   0  0  0  0  0  0  0  0  0  0  0  0
    8.0372    0.6810   -0.0066 C   0  0  0  0  0  0  0  0  0  0  0  0
    6.3882    2.3859   -0.4662 C   0  0  0  0  0  0  0  0  0  0  0  0
    7.6895    1.8991   -0.5903 C   0  0  0  0  0  0  0  0  0  0  0  0
   -7.4383   -1.6853    1.1676 C   0  0  0  0  0  0  0  0  0  0  0  0
   -6.7970    1.7716    0.6723 C   0  0  0  0  0  0  0  0  0  0  0  0
    1.0022   -0.7956   -2.7021 H   0  0  0  0  0  0  0  0  0  0  0  0
   -1.0602   -0.4180    0.7116 H   0  0  0  0  0  0  0  0  0  0  0  0
    2.5297   -2.2309   -1.4236 H   0  0  0  0  0  0  0  0  0  0  0  0
   -0.9444    1.9644    1.0285 H   0  0  0  0  0  0  0  0  0  0  0  0
   -2.4888    2.0403    0.1771 H   0  0  0  0  0  0  0  0  0  0  0  0
   -1.1675    3.0979   -0.3134 H   0  0  0  0  0  0  0  0  0  0  0  0
   -1.2614    0.4931   -3.0523 H   0  0  0  0  0  0  0  0  0  0  0  0
   -1.2613    2.2358   -2.7348 H   0  0  0  0  0  0  0  0  0  0  0  0
   -2.6457    1.2580   -2.2688 H   0  0  0  0  0  0  0  0  0  0  0  0
    2.6644    0.2174    0.3226 H   0  0  0  0  0  0  0  0  0  0  0  0
    5.2485   -0.9360    2.3689 H   0  0  0  0  0  0  0  0  0  0  0  0
   -4.9101   -0.8768   -1.6160 H   0  0  0  0  0  0  0  0  0  0  0  0
   -4.8197   -1.9158   -0.1699 H   0  0  0  0  0  0  0  0  0  0  0  0
    3.1106   -0.0641    2.7553 H   0  0  0  0  0  0  0  0  0  0  0  0
    4.2222    1.1131    2.9088 H   0  0  0  0  0  0  0  0  0  0  0  0
    7.3624   -0.9991    1.1505 H   0  0  0  0  0  0  0  0  0  0  0  0
    4.4270    2.0535    0.3057 H   0  0  0  0  0  0  0  0  0  0  0  0
    9.0503    0.3017   -0.1040 H   0  0  0  0  0  0  0  0  0  0  0  0
    6.1169    3.3326   -0.9242 H   0  0  0  0  0  0  0  0  0  0  0  0
    8.4318    2.4682   -1.1424 H   0  0  0  0  0  0  0  0  0  0  0  0
   -8.4545   -1.7984    0.7768 H   0  0  0  0  0  0  0  0  0  0  0  0
   -6.8377   -2.5125    0.7792 H   0  0  0  0  0  0  0  0  0  0  0  0
   -7.4771   -1.7793    2.2574 H   0  0  0  0  0  0  0  0  0  0  0  0
  1 12  1  0  0  0  0
  1 13  1  0  0  0  0
  2 16  2  0  0  0  0
  3 19  1  0  0  0  0
  3 22  1  0  0  0  0
  4 19  2  0  0  0  0
  5 20  2  0  0  0  0
  6 24  1  0  0  0  0
  6 32  1  0  0  0  0
  7 27  1  0  0  0  0
  7 32  1  0  0  0  0
  8 32  2  0  0  0  0
  9 12  1  0  0  0  0
  9 14  1  0  0  0  0
  9 16  1  0  0  0  0
 10 15  1  0  0  0  0
 10 20  1  0  0  0  0
 10 42  1  0  0  0  0
 11 21  1  0  0  0  0
 11 46  1  0  0  0  0
 11 47  1  0  0  0  0
 12 15  1  0  0  0  0
 12 33  1  0  0  0  0
 13 14  1  0  0  0  0
 13 17  1  0  0  0  0
 13 18  1  0  0  0  0
 14 19  1  0  0  0  0
 14 34  1  0  0  0  0
 15 16  1  0  0  0  0
 15 35  1  0  0  0  0
 17 36  1  0  0  0  0
 17 37  1  0  0  0  0
 17 38  1  0  0  0  0
 18 39  1  0  0  0  0
 18 40  1  0  0  0  0
 18 41  1  0  0  0  0
 20 21  1  0  0  0  0
 21 23  1  0  0  0  0
 21 43  1  0  0  0  0
 22 24  1  0  0  0  0
 22 44  1  0  0  0  0
 22 45  1  0  0  0  0
 23 25  2  0  0  0  0
 23 26  1  0  0  0  0
 24 27  2  0  0  0  0
 25 28  1  0  0  0  0
 25 48  1  0  0  0  0
 26 29  2  0  0  0  0
 26 49  1  0  0  0  0
 27 31  1  0  0  0  0
 28 30  2  0  0  0  0
 28 50  1  0  0  0  0
 29 30  1  0  0  0  0
 29 51  1  0  0  0  0
 30 52  1  0  0  0  0
 31 53  1  0  0  0  0
 31 54  1  0  0  0  0
 31 55  1  0  0  0  0
M  END
> <PUBCHEM_COMPOUND_CID>
3900

> <PUBCHEM_CONFORMER_RMSD>
1.6

> <PUBCHEM_CONFORMER_DIVERSEORDER>
7
14
76
75
2
110
28
50
88
30
137
22
66
26
27
130
44
100
97
72
90
55
109
23
36
132
85
108
103
140
33
38
46
5
17
39
60
82
34
114
120
83
69
121
117
61
42
148
95
128
119
139
101
4
135
9
105
59
19
136
13
43
93
92
32
112
31
57
81
131
74
49
142
99
143
25
68
40
47
24
8
102
29
89
3
65
141
79
124
77
20
6
18
11
56
53
70
104
127
94
98
113
71
129
144
78
37
1
133
10
64
45
41
54
84
115
12
80
147
138
91
145
86
123
96
48
21
35
52
62
16
58
51
116
73
125
107
126
15
146
106
122
67
87
134
118
111
63

> <PUBCHEM_MMFF94_PARTIAL_CHARGES>
38
1 -0.45
10 -0.65
11 -0.99
12 0.44
13 0.23
14 0.36
15 0.28
16 0.58
19 0.66
2 -0.57
20 0.57
21 0.47
22 0.42
23 -0.14
24 -0.06
25 -0.15
26 -0.15
27 -0.06
28 -0.15
29 -0.15
3 -0.43
30 -0.15
31 0.14
32 0.87
4 -0.57
42 0.37
46 0.36
47 0.36
48 0.15
49 0.15
5 -0.57
50 0.15
51 0.15
52 0.15
6 -0.23
7 -0.23
8 -0.57
9 -0.59

> <PUBCHEM_EFFECTIVE_ROTOR_COUNT>
8.8

> <PUBCHEM_PHARMACOPHORE_FEATURES>
11
1 10 donor
1 11 cation
1 11 donor
1 2 acceptor
1 4 acceptor
1 5 acceptor
3 13 17 18 hydrophobe
4 9 12 15 16 rings
5 6 7 24 27 32 rings
6 23 25 26 28 29 30 rings
7 1 9 12 13 14 15 16 rings

> <PUBCHEM_HEAVY_ATOM_COUNT>
32

> <PUBCHEM_ATOM_DEF_STEREO_COUNT>
0

> <PUBCHEM_ATOM_UDEF_STEREO_COUNT>
4

> <PUBCHEM_BOND_DEF_STEREO_COUNT>
0

> <PUBCHEM_BOND_UDEF_STEREO_COUNT>
0

> <PUBCHEM_ISOTOPIC_ATOM_COUNT>
0

> <PUBCHEM_COMPONENT_COUNT>
1

> <PUBCHEM_CACTVS_TAUTO_COUNT>
2

> <PUBCHEM_CONFORMER_ID>
00000F3C00000007

> <PUBCHEM_MMFF94_ENERGY>
76.7613

> <PUBCHEM_FEATURE_SELFOVERLAP>
59.56

> <PUBCHEM_SHAPE_FINGERPRINT>
10 15 18261109678209034155
10100884 174 17841710713123355587
106641 1 17917992741606366546
10670039 82 4678828228738649819
10674148 151 18186803553033268432
10693767 8 8502378810755157428
10883706 17 9511162058642690245
10906281 52 18412540977479394110
11456790 92 18410580587365758872
11991303 11 14274031982741176509
12539765 74 18187357732231240766
13782708 43 13326566367925169639
14068700 675 10807937076369424583
14251764 18 18342739581369733789
14394314 77 18341328976945821041
14849402 71 18270397187866493357
14951699 99 18041558143917915417
15461852 350 17603594002674278031
15510800 12 12607403351395776720
18335252 114 14490194912273108394
190975 80 17704073954219120579
2026 5 12607407698156193433
21033648 29 17532109228245438218
21130935 74 18272647995917481435
21315764 119 4751155246449348332
21521239 73 9511453425202545805
23576562 1 4894684394890630689
24771293 8 18412824668437196309
3383291 50 13398627260150517209
3711267 37 17822004294433917448
397830 11 18130509737910494309
4093350 32 17603861235086144366
4169191 19 18409733984744951293
474113 269 13985204654371484460
504579 68 6122506783365448775
5104073 3 17916032449775805729
6004065 56 11527945656343306710
6126387 218 17203336615919896911
9689198 14 18186518782993416368
9962374 69 14476669751221137131

> <PUBCHEM_SHAPE_MULTIPOLES>
606.37
23.82
2.65
1.51
5.79
0.13
0.13
10.42
-10.36
0.51
-0.07
0.16
0.08
-1.2

> <PUBCHEM_SHAPE_SELFOVERLAP>
1289.911

> <PUBCHEM_SHAPE_VOLUME>
341.3

> <PUBCHEM_COORDINATE_TYPE>
2
5
10

$$$$

