7356
  -OEChem-06261202012D

 22 18  0     0  0  0  0  0  0999 V2000
    3.7320    0.4815    0.0000 Al  0  1  0  0  0  0  0  0  0  0  0  0
    4.5981    0.9815    0.0000 C   0  5  0  0  0  0  0  0  0  0  0  0
    2.8660    0.9815    0.0000 C   0  5  0  0  0  0  0  0  0  0  0  0
    3.7320   -0.5185    0.0000 C   0  5  0  0  0  0  0  0  0  0  0  0
    5.4641    1.4815    0.0000 C   0  0  0  0  0  0  0  0  0  0  0  0
    2.0000    1.4815    0.0000 C   0  0  0  0  0  0  0  0  0  0  0  0
    3.7320   -1.5185    0.0000 C   0  0  0  0  0  0  0  0  0  0  0  0
    3.1120   -0.5185    0.0000 H   0  0  0  0  0  0  0  0  0  0  0  0
    4.3520   -0.5185    0.0000 H   0  0  0  0  0  0  0  0  0  0  0  0
    2.5560    0.4446    0.0000 H   0  0  0  0  0  0  0  0  0  0  0  0
    3.1760    1.5185    0.0000 H   0  0  0  0  0  0  0  0  0  0  0  0
    4.9081    0.4446    0.0000 H   0  0  0  0  0  0  0  0  0  0  0  0
    4.2881    1.5185    0.0000 H   0  0  0  0  0  0  0  0  0  0  0  0
    3.1120   -1.5185    0.0000 H   0  0  0  0  0  0  0  0  0  0  0  0
    3.7320   -2.1385    0.0000 H   0  0  0  0  0  0  0  0  0  0  0  0
    4.3520   -1.5185    0.0000 H   0  0  0  0  0  0  0  0  0  0  0  0
    2.3100    2.0185    0.0000 H   0  0  0  0  0  0  0  0  0  0  0  0
    1.4631    1.7915    0.0000 H   0  0  0  0  0  0  0  0  0  0  0  0
    1.6900    0.9446    0.0000 H   0  0  0  0  0  0  0  0  0  0  0  0
    5.7741    0.9446    0.0000 H   0  0  0  0  0  0  0  0  0  0  0  0
    6.0010    1.7915    0.0000 H   0  0  0  0  0  0  0  0  0  0  0  0
    5.1541    2.0185    0.0000 H   0  0  0  0  0  0  0  0  0  0  0  0
  2  5  1  0  0  0  0
  2 12  1  0  0  0  0
  2 13  1  0  0  0  0
  3  6  1  0  0  0  0
  3 10  1  0  0  0  0
  3 11  1  0  0  0  0
  4  7  1  0  0  0  0
  4  8  1  0  0  0  0
  4  9  1  0  0  0  0
  5 20  1  0  0  0  0
  5 21  1  0  0  0  0
  5 22  1  0  0  0  0
  6 17  1  0  0  0  0
  6 18  1  0  0  0  0
  6 19  1  0  0  0  0
  7 14  1  0  0  0  0
  7 15  1  0  0  0  0
  7 16  1  0  0  0  0
M  CHG  4   1   3   2  -1   3  -1   4  -1
M  END
> <PUBCHEM_COMPOUND_CID>
7356

> <PUBCHEM_COMPOUND_CANONICALIZED>
1

> <PUBCHEM_CACTVS_COMPLEXITY>
4.1

> <PUBCHEM_CACTVS_HBOND_ACCEPTOR>
3

> <PUBCHEM_CACTVS_HBOND_DONOR>
0

> <PUBCHEM_CACTVS_ROTATABLE_BOND>
0

> <PUBCHEM_CACTVS_SUBSKEYS>
AAADccBgAAAAABAAAAAAAAAAAAAAAAAAAAAAAAAAAAAAAAAAAAAAGAAAAAAAAACAAAACAAAAAAAAAAAAAAAAAAAAAAAAAAAAAAAAAAAAAAAAAAAAAAAAAAAAAAAAAAAAAAAAAAAAAAAAAAAAAAAAAAAAAA==

> <PUBCHEM_IUPAC_OPENEYE_NAME>
aluminum ethane

> <PUBCHEM_IUPAC_CAS_NAME>
aluminum ethane

> <PUBCHEM_IUPAC_NAME>
aluminum ethane

> <PUBCHEM_IUPAC_SYSTEMATIC_NAME>
aluminum ethane

> <PUBCHEM_IUPAC_TRADITIONAL_NAME>
aluminum ethane

> <PUBCHEM_IUPAC_INCHI>
InChI=1S/3C2H5.Al/c3*1-2;/h3*1H2,2H3;/q3*-1;+3

> <PUBCHEM_IUPAC_INCHIKEY>
FQRAQWIKULHRDY-UHFFFAOYSA-N

> <PUBCHEM_EXACT_MASS>
114.098914

> <PUBCHEM_MOLECULAR_FORMULA>
C6H15Al

> <PUBCHEM_MOLECULAR_WEIGHT>
114.164839

> <PUBCHEM_OPENEYE_CAN_SMILES>
C[CH2-].C[CH2-].C[CH2-].[Al+3]

> <PUBCHEM_OPENEYE_ISO_SMILES>
C[CH2-].C[CH2-].C[CH2-].[Al+3]

> <PUBCHEM_CACTVS_TPSA>
0

> <PUBCHEM_MONOISOTOPIC_WEIGHT>
114.098914

> <PUBCHEM_TOTAL_CHARGE>
0

> <PUBCHEM_HEAVY_ATOM_COUNT>
7

> <PUBCHEM_ATOM_DEF_STEREO_COUNT>
0

> <PUBCHEM_ATOM_UDEF_STEREO_COUNT>
0

> <PUBCHEM_BOND_DEF_STEREO_COUNT>
0

> <PUBCHEM_BOND_UDEF_STEREO_COUNT>
0

> <PUBCHEM_ISOTOPIC_ATOM_COUNT>
0

> <PUBCHEM_COMPONENT_COUNT>
4

> <PUBCHEM_CACTVS_TAUTO_COUNT>
1

> <PUBCHEM_NONSTANDARDBOND>
1  2  6
1  3  6
1  4  6

> <PUBCHEM_COORDINATE_TYPE>
1
5
255

$$$$

