3395
  -OEChem-06251223233D

 43 44  0     1  0  0  0  0  0999 V2000
   -1.8741    1.0052    2.0627 F   0  0  0  0  0  0  0  0  0  0  0  0
    2.9792    0.0522   -0.2625 O   0  0  0  0  0  0  0  0  0  0  0  0
    3.7381    1.8231    1.0014 O   0  0  0  0  0  0  0  0  0  0  0  0
    3.7338   -2.1965   -0.1367 O   0  0  0  0  0  0  0  0  0  0  0  0
    1.5318   -2.2940    0.5565 O   0  0  0  0  0  0  0  0  0  0  0  0
    1.9829    2.1528   -0.6643 C   0  0  1  0  0  0  0  0  0  0  0  0
    0.5876    1.5682   -0.5209 C   0  0  0  0  0  0  0  0  0  0  0  0
    2.0314    3.6357   -0.2852 C   0  0  0  0  0  0  0  0  0  0  0  0
   -0.0084    1.5559    0.7248 C   0  0  0  0  0  0  0  0  0  0  0  0
   -0.0452    1.0651   -1.6406 C   0  0  0  0  0  0  0  0  0  0  0  0
   -1.9477    0.5052   -0.2610 C   0  0  0  0  0  0  0  0  0  0  0  0
    3.0123    1.3605    0.1310 C   0  0  0  0  0  0  0  0  0  0  0  0
   -1.2890    1.0190    0.8561 C   0  0  0  0  0  0  0  0  0  0  0  0
   -1.3257    0.5282   -1.5093 C   0  0  0  0  0  0  0  0  0  0  0  0
   -3.2761   -0.0535   -0.1300 C   0  0  0  0  0  0  0  0  0  0  0  0
    3.8721   -0.8641    0.4004 C   0  0  1  0  0  0  0  0  0  0  0  0
   -3.4375   -1.4100    0.1516 C   0  0  0  0  0  0  0  0  0  0  0  0
   -4.3949    0.7646   -0.2853 C   0  0  0  0  0  0  0  0  0  0  0  0
    5.3076   -0.4264    0.1480 C   0  0  0  0  0  0  0  0  0  0  0  0
   -4.7180   -1.9485    0.2780 C   0  0  0  0  0  0  0  0  0  0  0  0
   -5.6755    0.2263   -0.1587 C   0  0  0  0  0  0  0  0  0  0  0  0
   -5.8370   -1.1303    0.1228 C   0  0  0  0  0  0  0  0  0  0  0  0
    2.5128   -2.7844    0.0140 C   0  0  0  0  0  0  0  0  0  0  0  0
    2.5394   -4.1542   -0.5927 C   0  0  0  0  0  0  0  0  0  0  0  0
    2.3046    2.0891   -1.7132 H   0  0  0  0  0  0  0  0  0  0  0  0
    1.3069    4.2133   -0.8698 H   0  0  0  0  0  0  0  0  0  0  0  0
    1.8135    3.7994    0.7761 H   0  0  0  0  0  0  0  0  0  0  0  0
    3.0271    4.0507   -0.4783 H   0  0  0  0  0  0  0  0  0  0  0  0
    0.4939    1.9467    1.6043 H   0  0  0  0  0  0  0  0  0  0  0  0
    0.4298    1.0772   -2.6169 H   0  0  0  0  0  0  0  0  0  0  0  0
   -1.8247    0.1313   -2.3904 H   0  0  0  0  0  0  0  0  0  0  0  0
    3.6567   -0.8923    1.4757 H   0  0  0  0  0  0  0  0  0  0  0  0
   -2.5758   -2.0617    0.2758 H   0  0  0  0  0  0  0  0  0  0  0  0
   -4.2868    1.8242   -0.5048 H   0  0  0  0  0  0  0  0  0  0  0  0
    5.5926    0.4765    0.6912 H   0  0  0  0  0  0  0  0  0  0  0  0
    5.4703   -0.2348   -0.9189 H   0  0  0  0  0  0  0  0  0  0  0  0
    6.0048   -1.2185    0.4431 H   0  0  0  0  0  0  0  0  0  0  0  0
   -4.8439   -3.0048    0.4974 H   0  0  0  0  0  0  0  0  0  0  0  0
   -6.5469    0.8633   -0.2795 H   0  0  0  0  0  0  0  0  0  0  0  0
   -6.8340   -1.5495    0.2213 H   0  0  0  0  0  0  0  0  0  0  0  0
    2.7641   -4.0828   -1.6599 H   0  0  0  0  0  0  0  0  0  0  0  0
    1.5578   -4.6221   -0.4745 H   0  0  0  0  0  0  0  0  0  0  0  0
    3.2830   -4.7715   -0.0826 H   0  0  0  0  0  0  0  0  0  0  0  0
  1 13  1  0  0  0  0
  2 12  1  0  0  0  0
  2 16  1  0  0  0  0
  3 12  2  0  0  0  0
  4 16  1  0  0  0  0
  4 23  1  0  0  0  0
  5 23  2  0  0  0  0
  6  7  1  0  0  0  0
  6  8  1  0  0  0  0
  6 12  1  0  0  0  0
  6 25  1  0  0  0  0
  7  9  2  0  0  0  0
  7 10  1  0  0  0  0
  8 26  1  0  0  0  0
  8 27  1  0  0  0  0
  8 28  1  0  0  0  0
  9 13  1  0  0  0  0
  9 29  1  0  0  0  0
 10 14  2  0  0  0  0
 10 30  1  0  0  0  0
 11 13  2  0  0  0  0
 11 14  1  0  0  0  0
 11 15  1  0  0  0  0
 14 31  1  0  0  0  0
 15 17  2  0  0  0  0
 15 18  1  0  0  0  0
 16 19  1  0  0  0  0
 16 32  1  0  0  0  0
 17 20  1  0  0  0  0
 17 33  1  0  0  0  0
 18 21  2  0  0  0  0
 18 34  1  0  0  0  0
 19 35  1  0  0  0  0
 19 36  1  0  0  0  0
 19 37  1  0  0  0  0
 20 22  2  0  0  0  0
 20 38  1  0  0  0  0
 21 22  1  0  0  0  0
 21 39  1  0  0  0  0
 22 40  1  0  0  0  0
 23 24  1  0  0  0  0
 24 41  1  0  0  0  0
 24 42  1  0  0  0  0
 24 43  1  0  0  0  0
M  END
> <PUBCHEM_COMPOUND_CID>
3395

> <PUBCHEM_CONFORMER_RMSD>
1

> <PUBCHEM_CONFORMER_DIVERSEORDER>
2
68
396
148
36
633
137
123
337
444
183
356
656
454
359
665
41
406
581
187
442
32
394
202
429
384
39
151
228
54
30
57
419
613
4
167
446
514
138
374
111
515
122
536
1
535
211
7
161
93
588
652
487
629
519
204
669
224
544
85
53
323
113
249
239
175
314
46
14
619
3
471
285
56
103
209
13
242
270
6
177
153
205
424
26
70
129
266
65
626
158
9
84
18
584
160
52
106
8
250
51
15
346
141
321
354
72
275
47
334
411
49
600
79
5
301
22
29
682
45
42
11

> <PUBCHEM_MMFF94_PARTIAL_CHARGES>
28
1 -0.19
10 -0.15
12 0.66
13 0.19
14 -0.15
16 0.56
17 -0.15
18 -0.15
2 -0.43
20 -0.15
21 -0.15
22 -0.15
23 0.66
24 0.06
29 0.15
3 -0.57
30 0.15
31 0.15
33 0.15
34 0.15
38 0.15
39 0.15
4 -0.43
40 0.15
5 -0.57
6 0.2
7 -0.14
9 -0.15

> <PUBCHEM_EFFECTIVE_ROTOR_COUNT>
7

> <PUBCHEM_PHARMACOPHORE_FEATURES>
5
1 3 acceptor
1 5 acceptor
1 8 hydrophobe
6 15 17 18 20 21 22 rings
6 7 9 10 11 13 14 rings

> <PUBCHEM_HEAVY_ATOM_COUNT>
24

> <PUBCHEM_ATOM_DEF_STEREO_COUNT>
0

> <PUBCHEM_ATOM_UDEF_STEREO_COUNT>
2

> <PUBCHEM_BOND_DEF_STEREO_COUNT>
0

> <PUBCHEM_BOND_UDEF_STEREO_COUNT>
0

> <PUBCHEM_ISOTOPIC_ATOM_COUNT>
0

> <PUBCHEM_COMPONENT_COUNT>
1

> <PUBCHEM_CACTVS_TAUTO_COUNT>
1

> <PUBCHEM_CONFORMER_ID>
00000D4300000002

> <PUBCHEM_MMFF94_ENERGY>
60.0279

> <PUBCHEM_FEATURE_SELFOVERLAP>
25.371

> <PUBCHEM_SHAPE_FINGERPRINT>
11370993 70 18196937664862725569
114674 6 18272652359229473698
11595378 159 15647320979515174475
11796584 16 18187358814573048183
12107183 9 18119801671951833265
12467345 10 18407760339618402595
12596599 1 17827348092711840762
12596602 18 17023188167367976683
12788726 201 17385709284565712329
13402501 40 18272369784851846346
13533116 47 18334012787697678657
13583140 156 18114193986414247013
14251757 17 17915194609526404693
14863182 85 18412823556641968668
14866123 147 17328586631629344793
15250474 111 18190469259890805311
15422964 175 18267030625275251796
15848702 151 18273500061509334893
15927050 60 17904480697974822380
17492 54 17916284105680784462
1813 80 16917069953938458501
19784866 240 18410849971181381413
1979834 28 18261118486643951178
19930381 70 18267868474104538419
20028762 73 18188213096295668150
20645477 70 18201441337383467424
21033648 29 13912587374159452427
21033650 10 16414069909679939620
21197605 99 18124029031645880835
21285901 2 17703795829200843829
21344244 181 18115847665398975510
21421861 104 18116409562531189211
22224240 67 18190472571558438736
23559900 14 18411424990262014377
239999 70 18260821567112011220
3004659 81 18272654536539937584
3117164 225 18118109510592721233
33382 64 18339917109525898259
338550 245 18269556031189851734
3421961 26 18410577314072897958
3633792 109 18341344362055946741
392239 28 17460060438648010714
404807 14 17688585383512695971
4072396 5 17167856470423247325
4340502 62 18190746327924978456
46194498 28 17703788093922688780
463206 1 18265616485644536491
5104073 3 18262790767010634233
5309563 4 18339082708791062998
6443956 14 18342455971488685748
8272917 22 18411697651754921580
9709674 26 18201434723597847675
9777508 108 17110165919652500312

> <PUBCHEM_SHAPE_MULTIPOLES>
463.16
11.3
3.76
1.11
8.98
2.33
0.01
4.86
1.06
-4.83
-0.4
0.16
-0.39
0.37

> <PUBCHEM_SHAPE_SELFOVERLAP>
982.443

> <PUBCHEM_SHAPE_VOLUME>
260.7

> <PUBCHEM_COORDINATE_TYPE>
2
5
10

$$$$

