9417
  -OEChem-06261203413D

 56 59  0     0  0  0  0  0  0999 V2000
    7.6660    0.6517    0.6548 O   0  0  0  0  0  0  0  0  0  0  0  0
    1.5389   -1.2631    0.0536 N   0  0  0  0  0  0  0  0  0  0  0  0
    4.4131   -0.9539    0.0072 N   0  0  0  0  0  0  0  0  0  0  0  0
   -1.7031   -0.0595   -0.7211 N   0  0  0  0  0  0  0  0  0  0  0  0
    2.3669   -1.9755   -0.9273 C   0  0  0  0  0  0  0  0  0  0  0  0
    2.2993   -1.0188    1.2854 C   0  0  0  0  0  0  0  0  0  0  0  0
    3.6525   -1.1962   -1.2247 C   0  0  0  0  0  0  0  0  0  0  0  0
    3.5857   -0.2406    0.9879 C   0  0  0  0  0  0  0  0  0  0  0  0
    0.3146   -2.0088    0.3387 C   0  0  0  0  0  0  0  0  0  0  0  0
   -0.5327   -2.2211   -0.9197 C   0  0  0  0  0  0  0  0  0  0  0  0
    5.6386   -0.2099   -0.2770 C   0  0  0  0  0  0  0  0  0  0  0  0
   -0.9502   -0.9340   -1.6302 C   0  0  0  0  0  0  0  0  0  0  0  0
    6.4799   -0.0608    0.9805 C   0  0  0  0  0  0  0  0  0  0  0  0
   -2.9380   -0.5628   -0.2391 C   0  0  0  0  0  0  0  0  0  0  0  0
   -1.2710    1.2886   -0.6396 C   0  0  0  0  0  0  0  0  0  0  0  0
   -3.4408   -0.2443    1.0388 C   0  0  0  0  0  0  0  0  0  0  0  0
   -1.3757    2.0492    0.5427 C   0  0  0  0  0  0  0  0  0  0  0  0
   -3.7322   -1.3993   -1.0601 C   0  0  0  0  0  0  0  0  0  0  0  0
   -0.7333    1.9316   -1.7805 C   0  0  0  0  0  0  0  0  0  0  0  0
   -2.6973    0.5229    2.0443 C   0  0  0  0  0  0  0  0  0  0  0  0
   -1.8142    1.5037    1.8321 C   0  0  0  0  0  0  0  0  0  0  0  0
   -4.6834   -0.7664    1.4553 C   0  0  0  0  0  0  0  0  0  0  0  0
   -0.9399    3.3909    0.5562 C   0  0  0  0  0  0  0  0  0  0  0  0
   -4.9653   -1.9002   -0.6391 C   0  0  0  0  0  0  0  0  0  0  0  0
   -0.3158    3.2635   -1.7559 C   0  0  0  0  0  0  0  0  0  0  0  0
   -5.4426   -1.5823    0.6216 C   0  0  0  0  0  0  0  0  0  0  0  0
   -0.4201    3.9953   -0.5847 C   0  0  0  0  0  0  0  0  0  0  0  0
    1.8568   -2.0818   -1.8891 H   0  0  0  0  0  0  0  0  0  0  0  0
    2.6189   -2.9839   -0.5722 H   0  0  0  0  0  0  0  0  0  0  0  0
    2.5468   -1.9642    1.7872 H   0  0  0  0  0  0  0  0  0  0  0  0
    1.6927   -0.4277    1.9826 H   0  0  0  0  0  0  0  0  0  0  0  0
    4.2583   -1.7851   -1.9241 H   0  0  0  0  0  0  0  0  0  0  0  0
    3.4036   -0.2496   -1.7241 H   0  0  0  0  0  0  0  0  0  0  0  0
    3.3356    0.7690    0.6347 H   0  0  0  0  0  0  0  0  0  0  0  0
    4.0939   -0.1400    1.9511 H   0  0  0  0  0  0  0  0  0  0  0  0
    0.5487   -2.9898    0.7734 H   0  0  0  0  0  0  0  0  0  0  0  0
   -0.2792   -1.4737    1.0886 H   0  0  0  0  0  0  0  0  0  0  0  0
   -0.0274   -2.8808   -1.6340 H   0  0  0  0  0  0  0  0  0  0  0  0
   -1.4184   -2.7938   -0.6195 H   0  0  0  0  0  0  0  0  0  0  0  0
    5.4260    0.7797   -0.7036 H   0  0  0  0  0  0  0  0  0  0  0  0
    6.2372   -0.7403   -1.0290 H   0  0  0  0  0  0  0  0  0  0  0  0
   -1.5022   -1.1470   -2.5522 H   0  0  0  0  0  0  0  0  0  0  0  0
   -0.0188   -0.4674   -1.9718 H   0  0  0  0  0  0  0  0  0  0  0  0
    6.7621   -1.0375    1.3875 H   0  0  0  0  0  0  0  0  0  0  0  0
    5.9874    0.5240    1.7602 H   0  0  0  0  0  0  0  0  0  0  0  0
   -3.4275   -1.6624   -2.0691 H   0  0  0  0  0  0  0  0  0  0  0  0
   -0.6704    1.4162   -2.7369 H   0  0  0  0  0  0  0  0  0  0  0  0
   -2.9163    0.2703    3.0809 H   0  0  0  0  0  0  0  0  0  0  0  0
   -1.3797    1.9766    2.7117 H   0  0  0  0  0  0  0  0  0  0  0  0
   -5.0728   -0.5416    2.4471 H   0  0  0  0  0  0  0  0  0  0  0  0
   -0.9995    3.9821    1.4688 H   0  0  0  0  0  0  0  0  0  0  0  0
    8.1931    0.7182    1.4693 H   0  0  0  0  0  0  0  0  0  0  0  0
   -5.5494   -2.5330   -1.3007 H   0  0  0  0  0  0  0  0  0  0  0  0
    0.0813    3.7251   -2.6551 H   0  0  0  0  0  0  0  0  0  0  0  0
   -6.3987   -1.9698    0.9596 H   0  0  0  0  0  0  0  0  0  0  0  0
   -0.0956    5.0308   -0.5546 H   0  0  0  0  0  0  0  0  0  0  0  0
  1 13  1  0  0  0  0
  1 52  1  0  0  0  0
  2  5  1  0  0  0  0
  2  6  1  0  0  0  0
  2  9  1  0  0  0  0
  3  7  1  0  0  0  0
  3  8  1  0  0  0  0
  3 11  1  0  0  0  0
  4 12  1  0  0  0  0
  4 14  1  0  0  0  0
  4 15  1  0  0  0  0
  5  7  1  0  0  0  0
  5 28  1  0  0  0  0
  5 29  1  0  0  0  0
  6  8  1  0  0  0  0
  6 30  1  0  0  0  0
  6 31  1  0  0  0  0
  7 32  1  0  0  0  0
  7 33  1  0  0  0  0
  8 34  1  0  0  0  0
  8 35  1  0  0  0  0
  9 10  1  0  0  0  0
  9 36  1  0  0  0  0
  9 37  1  0  0  0  0
 10 12  1  0  0  0  0
 10 38  1  0  0  0  0
 10 39  1  0  0  0  0
 11 13  1  0  0  0  0
 11 40  1  0  0  0  0
 11 41  1  0  0  0  0
 12 42  1  0  0  0  0
 12 43  1  0  0  0  0
 13 44  1  0  0  0  0
 13 45  1  0  0  0  0
 14 16  1  0  0  0  0
 14 18  2  0  0  0  0
 15 17  1  0  0  0  0
 15 19  2  0  0  0  0
 16 20  1  0  0  0  0
 16 22  2  0  0  0  0
 17 21  1  0  0  0  0
 17 23  2  0  0  0  0
 18 24  1  0  0  0  0
 18 46  1  0  0  0  0
 19 25  1  0  0  0  0
 19 47  1  0  0  0  0
 20 21  2  0  0  0  0
 20 48  1  0  0  0  0
 21 49  1  0  0  0  0
 22 26  1  0  0  0  0
 22 50  1  0  0  0  0
 23 27  1  0  0  0  0
 23 51  1  0  0  0  0
 24 26  2  0  0  0  0
 24 53  1  0  0  0  0
 25 27  2  0  0  0  0
 25 54  1  0  0  0  0
 26 55  1  0  0  0  0
 27 56  1  0  0  0  0
M  END
> <PUBCHEM_COMPOUND_CID>
9417

> <PUBCHEM_CONFORMER_RMSD>
0.8

> <PUBCHEM_CONFORMER_DIVERSEORDER>
1
25
58
16
49
50
9
60
14
62
63
55
34
48
47
57
35
54
61
46
36
29
23
10
33
7
27
12
59
3
52
18
22
11
17
51
15
8
4
19
41
21
28
42
39
30
26
45
20
37
53
56
5
32
31
40
13
43
38
44
2
24
6

> <PUBCHEM_MMFF94_PARTIAL_CHARGES>
37
1 -0.68
11 0.27
12 0.37
13 0.28
14 0.1
15 0.1
16 0.03
17 0.03
18 -0.15
19 -0.15
2 -0.81
20 -0.18
21 -0.18
22 -0.15
23 -0.15
24 -0.15
25 -0.15
26 -0.15
27 -0.15
3 -0.81
4 -0.57
46 0.15
47 0.15
48 0.15
49 0.15
5 0.27
50 0.15
51 0.15
52 0.4
53 0.15
54 0.15
55 0.15
56 0.15
6 0.27
7 0.27
8 0.27
9 0.27

> <PUBCHEM_EFFECTIVE_ROTOR_COUNT>
7.4

> <PUBCHEM_PHARMACOPHORE_FEATURES>
9
1 1 acceptor
1 1 donor
1 2 cation
1 3 cation
1 4 cation
6 14 16 18 22 24 26 rings
6 15 17 19 23 25 27 rings
6 2 3 5 6 7 8 rings
7 4 14 15 16 17 20 21 rings

> <PUBCHEM_HEAVY_ATOM_COUNT>
27

> <PUBCHEM_ATOM_DEF_STEREO_COUNT>
0

> <PUBCHEM_ATOM_UDEF_STEREO_COUNT>
0

> <PUBCHEM_BOND_DEF_STEREO_COUNT>
0

> <PUBCHEM_BOND_UDEF_STEREO_COUNT>
0

> <PUBCHEM_ISOTOPIC_ATOM_COUNT>
0

> <PUBCHEM_COMPONENT_COUNT>
1

> <PUBCHEM_CACTVS_TAUTO_COUNT>
1

> <PUBCHEM_CONFORMER_ID>
000024C900000001

> <PUBCHEM_MMFF94_ENERGY>
95.1086

> <PUBCHEM_FEATURE_SELFOVERLAP>
45.687

> <PUBCHEM_SHAPE_FINGERPRINT>
10165383 225 16963472879109102093
10369192 42 16950282880683860196
10670039 82 18270101523155795508
1100329 8 18194959648093355727
11036077 3 8358264752149769777
11315181 36 14117793631434477166
11595378 159 18342185509314485530
12156800 1 16229097848563106736
12166972 35 17203609255595050446
12596602 18 17275113842855784368
12788726 201 18059024976487388563
13004483 165 18197217173472648811
133893 2 17693967114809481455
13911987 19 17702645692825600942
13947920 75 11527955534556772620
14400156 266 18113887257372422581
14415361 192 17773620302639497560
14840074 17 18339355250125216484
14955137 171 18263351517708924639
17899979 19 18271248222677317772
17980427 23 17894621574961738005
1813 80 18411411800628146199
18336668 15 18335420115420903305
18393751 57 18334577889641296474
20600515 1 18059273423551123999
20721686 146 16226593204757734425
21304303 282 16270816713314661213
21344244 246 17979079275784106519
25019877 29 17313097510776457542
392239 28 18273206483103657914
4015057 19 12607107496726328990
4058900 60 7132177328725712023
469060 322 18342451564873098864
5265222 85 8142085377551922154
6287921 2 18114165471872570526
6786 2 17184464859769895377
7399639 24 18187924032032416486

> <PUBCHEM_SHAPE_MULTIPOLES>
534.83
12.11
3.6
1.78
20.25
4.23
0.09
-6.08
4.16
-1.84
-1.26
-0.76
0.45
-0.05

> <PUBCHEM_SHAPE_SELFOVERLAP>
1138.547

> <PUBCHEM_SHAPE_VOLUME>
296.1

> <PUBCHEM_COORDINATE_TYPE>
2
5
10

$$$$

