3546
  -OEChem-06251223293D

 35 36  0     0  0  0  0  0  0999 V2000
    0.1419    0.9466    1.3054 S   0  0  0  0  0  0  0  0  0  0  0  0
    0.7576    2.2618    1.2361 O   0  0  0  0  0  0  0  0  0  0  0  0
   -0.2620    0.4059    2.5927 O   0  0  0  0  0  0  0  0  0  0  0  0
    1.1576   -0.1820    0.5258 N   0  0  0  0  0  0  0  0  0  0  0  0
   -3.9456   -2.3120   -0.0131 N   0  0  0  0  0  0  0  0  0  0  0  0
    3.9330   -0.0085   -0.2117 N   0  0  0  0  0  0  0  0  0  0  0  0
    6.1391    0.0630    0.4933 N   0  0  0  0  0  0  0  0  0  0  0  0
    5.6322   -1.4093   -1.1712 N   0  0  0  0  0  0  0  0  0  0  0  0
   -1.2759    0.9438    0.2676 C   0  0  0  0  0  0  0  0  0  0  0  0
   -2.1540   -0.1493    0.1864 C   0  0  0  0  0  0  0  0  0  0  0  0
   -3.2695   -0.0710   -0.6727 C   0  0  0  0  0  0  0  0  0  0  0  0
    1.5909    0.0515   -0.8592 C   0  0  0  0  0  0  0  0  0  0  0  0
   -1.5016    2.0940   -0.4907 C   0  0  0  0  0  0  0  0  0  0  0  0
   -3.4869    1.0912   -1.4313 C   0  0  0  0  0  0  0  0  0  0  0  0
   -1.9552   -1.3158    0.9339 C   0  0  0  0  0  0  0  0  0  0  0  0
   -2.6046    2.1673   -1.3383 C   0  0  0  0  0  0  0  0  0  0  0  0
    2.9414   -0.6040   -1.1100 C   0  0  0  0  0  0  0  0  0  0  0  0
   -4.1200   -1.1770   -0.7268 C   0  0  0  0  0  0  0  0  0  0  0  0
   -2.8674   -2.3512    0.7985 C   0  0  0  0  0  0  0  0  0  0  0  0
    5.1492   -0.4453   -0.3145 C   0  0  0  0  0  0  0  0  0  0  0  0
    1.1184   -1.1640    0.8257 H   0  0  0  0  0  0  0  0  0  0  0  0
    1.6642    1.1262   -1.0573 H   0  0  0  0  0  0  0  0  0  0  0  0
    0.8467   -0.3760   -1.5391 H   0  0  0  0  0  0  0  0  0  0  0  0
   -0.8375    2.9522   -0.4512 H   0  0  0  0  0  0  0  0  0  0  0  0
   -4.3429    1.1651   -2.0981 H   0  0  0  0  0  0  0  0  0  0  0  0
   -1.1179   -1.4924    1.5938 H   0  0  0  0  0  0  0  0  0  0  0  0
    2.8626   -1.6829   -0.9280 H   0  0  0  0  0  0  0  0  0  0  0  0
    3.2222   -0.4405   -2.1572 H   0  0  0  0  0  0  0  0  0  0  0  0
   -2.7778    3.0626   -1.9285 H   0  0  0  0  0  0  0  0  0  0  0  0
   -4.9972   -1.1822   -1.3681 H   0  0  0  0  0  0  0  0  0  0  0  0
   -2.7436   -3.2750    1.3547 H   0  0  0  0  0  0  0  0  0  0  0  0
    5.9375    0.7831    1.1785 H   0  0  0  0  0  0  0  0  0  0  0  0
    7.0967   -0.2644    0.4287 H   0  0  0  0  0  0  0  0  0  0  0  0
    6.6117   -1.6728   -1.1623 H   0  0  0  0  0  0  0  0  0  0  0  0
    5.0366   -1.8899   -1.8359 H   0  0  0  0  0  0  0  0  0  0  0  0
  1  2  2  0  0  0  0
  1  3  2  0  0  0  0
  1  4  1  0  0  0  0
  1  9  1  0  0  0  0
  4 12  1  0  0  0  0
  4 21  1  0  0  0  0
  5 18  2  0  0  0  0
  5 19  1  0  0  0  0
  6 17  1  0  0  0  0
  6 20  2  0  0  0  0
  7 20  1  0  0  0  0
  7 32  1  0  0  0  0
  7 33  1  0  0  0  0
  8 20  1  0  0  0  0
  8 34  1  0  0  0  0
  8 35  1  0  0  0  0
  9 10  1  0  0  0  0
  9 13  2  0  0  0  0
 10 11  2  0  0  0  0
 10 15  1  0  0  0  0
 11 14  1  0  0  0  0
 11 18  1  0  0  0  0
 12 17  1  0  0  0  0
 12 22  1  0  0  0  0
 12 23  1  0  0  0  0
 13 16  1  0  0  0  0
 13 24  1  0  0  0  0
 14 16  2  0  0  0  0
 14 25  1  0  0  0  0
 15 19  2  0  0  0  0
 15 26  1  0  0  0  0
 16 29  1  0  0  0  0
 17 27  1  0  0  0  0
 17 28  1  0  0  0  0
 18 30  1  0  0  0  0
 19 31  1  0  0  0  0
M  END
> <PUBCHEM_COMPOUND_CID>
3546

> <PUBCHEM_CONFORMER_RMSD>
0.8

> <PUBCHEM_CONFORMER_DIVERSEORDER>
1
46
23
44
37
30
39
24
25
43
47
36
27
3
35
6
20
41
22
48
16
17
9
12
40
38
7
26
13
21
49
42
15
18
32
31
14
34
4
10
45
33
19
29
2
5
28
11
8

> <PUBCHEM_MMFF94_PARTIAL_CHARGES>
29
1 1.45
12 0.36
13 -0.15
14 -0.15
15 -0.15
16 -0.15
17 0.25
18 0.16
19 0.16
2 -0.65
20 0.55
21 0.42
24 0.15
25 0.15
26 0.15
29 0.15
3 -0.65
30 0.15
31 0.15
32 0.4
33 0.4
34 0.4
35 0.4
4 -0.91
5 -0.62
6 -0.7
7 -0.85
8 -0.85
9 -0.01

> <PUBCHEM_EFFECTIVE_ROTOR_COUNT>
5

> <PUBCHEM_PHARMACOPHORE_FEATURES>
9
1 2 acceptor
1 3 acceptor
1 4 donor
1 5 acceptor
1 7 donor
1 8 donor
4 6 7 8 20 cation
6 5 10 11 15 18 19 rings
6 9 10 11 13 14 16 rings

> <PUBCHEM_HEAVY_ATOM_COUNT>
20

> <PUBCHEM_ATOM_DEF_STEREO_COUNT>
0

> <PUBCHEM_ATOM_UDEF_STEREO_COUNT>
0

> <PUBCHEM_BOND_DEF_STEREO_COUNT>
0

> <PUBCHEM_BOND_UDEF_STEREO_COUNT>
0

> <PUBCHEM_ISOTOPIC_ATOM_COUNT>
0

> <PUBCHEM_COMPONENT_COUNT>
1

> <PUBCHEM_CACTVS_TAUTO_COUNT>
2

> <PUBCHEM_CONFORMER_ID>
00000DDA00000001

> <PUBCHEM_MMFF94_ENERGY>
45.8253

> <PUBCHEM_FEATURE_SELFOVERLAP>
45.77

> <PUBCHEM_SHAPE_FINGERPRINT>
11089746 13 16917064448433911004
121448 382 18060700597711217802
12892183 10 5256143318835455695
13544592 145 18337117765880133701
13544653 18 17385721404910355088
14251740 79 18271801358614519762
14251764 30 17272833322359103171
14341114 328 5328741890080229186
16945 1 17915765123370946841
17870717 6 18340480153362107614
1813 80 16226316041627761040
19489759 90 18130791174685724606
19784866 240 15936988353061231957
200 152 17458065988636608516
20300324 65 18060700589142472956
20871999 31 18342184392485786365
21728266 224 18201731660536049178
23175994 123 17966968322439041481
23402539 116 16988842795797197196
23557571 272 18410577296634955772
23559900 14 18342186526678545348
2748010 2 17626689106871276749
4921388 177 18341044202900775541
5283173 99 18342463664160422956

> <PUBCHEM_SHAPE_MULTIPOLES>
378.8
10.47
2.27
1.57
19.53
0.01
0.66
-4.43
-4.01
-2.9
-0.03
0.05
0.32
1.34

> <PUBCHEM_SHAPE_SELFOVERLAP>
789.631

> <PUBCHEM_SHAPE_VOLUME>
214.9

> <PUBCHEM_COORDINATE_TYPE>
2
5
10

$$$$

