3792
  -OEChem-06251223413D

 52 53  0     0  0  0  0  0  0999 V2000
   -4.9480    0.6137   -0.5750 O   0  0  0  0  0  0  0  0  0  0  0  0
    5.9230   -1.1176    1.5442 O   0  0  0  0  0  0  0  0  0  0  0  0
    5.9987   -2.0830   -1.0610 O   0  0  0  0  0  0  0  0  0  0  0  0
    1.4965    1.3581    1.7626 O   0  0  0  0  0  0  0  0  0  0  0  0
   -6.5111   -2.5479    0.4957 N   0  0  0  0  0  0  0  0  0  0  0  0
    1.2205    2.0764   -0.4254 N   0  0  0  0  0  0  0  0  0  0  0  0
   -6.2149   -1.4044   -0.3666 C   0  0  0  0  0  0  0  0  0  0  0  0
   -1.1921    2.3774   -0.2729 C   0  0  0  0  0  0  0  0  0  0  0  0
   -5.2189   -0.4710    0.3029 C   0  0  0  0  0  0  0  0  0  0  0  0
    0.1540    3.0096   -0.1643 C   0  0  0  0  0  0  0  0  0  0  0  0
   -3.7108    1.1948   -0.4758 C   0  0  0  0  0  0  0  0  0  0  0  0
   -1.8606    2.3657   -1.4970 C   0  0  0  0  0  0  0  0  0  0  0  0
   -1.7830    1.7977    0.8499 C   0  0  0  0  0  0  0  0  0  0  0  0
   -3.1199    1.7743   -1.5986 C   0  0  0  0  0  0  0  0  0  0  0  0
   -3.0423    1.2066    0.7485 C   0  0  0  0  0  0  0  0  0  0  0  0
    2.9155    0.4212    0.1480 C   0  0  0  0  0  0  0  0  0  0  0  0
    1.8108    1.3176    0.5759 C   0  0  0  0  0  0  0  0  0  0  0  0
   -7.4718   -2.1715    1.5321 C   0  0  0  0  0  0  0  0  0  0  0  0
   -7.0246   -3.6653   -0.2958 C   0  0  0  0  0  0  0  0  0  0  0  0
    3.9149    0.0644    1.0533 C   0  0  0  0  0  0  0  0  0  0  0  0
    2.9540   -0.0627   -1.1597 C   0  0  0  0  0  0  0  0  0  0  0  0
    4.9527   -0.7765    0.6510 C   0  0  0  0  0  0  0  0  0  0  0  0
    4.9911   -1.2604   -0.6566 C   0  0  0  0  0  0  0  0  0  0  0  0
    3.9918   -0.9035   -1.5619 C   0  0  0  0  0  0  0  0  0  0  0  0
    5.8101   -0.5805    2.8606 C   0  0  0  0  0  0  0  0  0  0  0  0
    5.9643   -2.5335   -2.4139 C   0  0  0  0  0  0  0  0  0  0  0  0
   -5.7535   -1.7418   -1.3052 H   0  0  0  0  0  0  0  0  0  0  0  0
   -7.1208   -0.8619   -0.6686 H   0  0  0  0  0  0  0  0  0  0  0  0
   -5.6223   -0.0605    1.2344 H   0  0  0  0  0  0  0  0  0  0  0  0
   -4.3102   -1.0473    0.5242 H   0  0  0  0  0  0  0  0  0  0  0  0
    0.2534    3.8301   -0.8846 H   0  0  0  0  0  0  0  0  0  0  0  0
    0.2910    3.4515    0.8301 H   0  0  0  0  0  0  0  0  0  0  0  0
   -1.4103    2.8121   -2.3796 H   0  0  0  0  0  0  0  0  0  0  0  0
   -1.2786    1.8078    1.8123 H   0  0  0  0  0  0  0  0  0  0  0  0
   -3.6357    1.7674   -2.5549 H   0  0  0  0  0  0  0  0  0  0  0  0
   -3.4780    0.7924    1.6527 H   0  0  0  0  0  0  0  0  0  0  0  0
    1.5631    2.0339   -1.3790 H   0  0  0  0  0  0  0  0  0  0  0  0
   -8.4184   -1.8131    1.1111 H   0  0  0  0  0  0  0  0  0  0  0  0
   -7.6927   -3.0314    2.1752 H   0  0  0  0  0  0  0  0  0  0  0  0
   -7.0720   -1.3972    2.1938 H   0  0  0  0  0  0  0  0  0  0  0  0
   -6.2817   -3.9916   -1.0323 H   0  0  0  0  0  0  0  0  0  0  0  0
   -7.9479   -3.4058   -0.8266 H   0  0  0  0  0  0  0  0  0  0  0  0
   -7.2269   -4.5308    0.3451 H   0  0  0  0  0  0  0  0  0  0  0  0
    3.8428    0.4728    2.0555 H   0  0  0  0  0  0  0  0  0  0  0  0
    2.1792    0.1642   -1.8860 H   0  0  0  0  0  0  0  0  0  0  0  0
    3.9535   -1.2470   -2.5900 H   0  0  0  0  0  0  0  0  0  0  0  0
    5.8864    0.5122    2.8591 H   0  0  0  0  0  0  0  0  0  0  0  0
    4.9060   -0.9363    3.3663 H   0  0  0  0  0  0  0  0  0  0  0  0
    6.6630   -0.9565    3.4355 H   0  0  0  0  0  0  0  0  0  0  0  0
    5.0815   -3.1510   -2.6112 H   0  0  0  0  0  0  0  0  0  0  0  0
    6.0570   -1.7006   -3.1192 H   0  0  0  0  0  0  0  0  0  0  0  0
    6.8398   -3.1742   -2.5624 H   0  0  0  0  0  0  0  0  0  0  0  0
  1  9  1  0  0  0  0
  1 11  1  0  0  0  0
  2 22  1  0  0  0  0
  2 25  1  0  0  0  0
  3 23  1  0  0  0  0
  3 26  1  0  0  0  0
  4 17  2  0  0  0  0
  5  7  1  0  0  0  0
  5 18  1  0  0  0  0
  5 19  1  0  0  0  0
  6 10  1  0  0  0  0
  6 17  1  0  0  0  0
  6 37  1  0  0  0  0
  7  9  1  0  0  0  0
  7 27  1  0  0  0  0
  7 28  1  0  0  0  0
  8 10  1  0  0  0  0
  8 12  2  0  0  0  0
  8 13  1  0  0  0  0
  9 29  1  0  0  0  0
  9 30  1  0  0  0  0
 10 31  1  0  0  0  0
 10 32  1  0  0  0  0
 11 14  2  0  0  0  0
 11 15  1  0  0  0  0
 12 14  1  0  0  0  0
 12 33  1  0  0  0  0
 13 15  2  0  0  0  0
 13 34  1  0  0  0  0
 14 35  1  0  0  0  0
 15 36  1  0  0  0  0
 16 17  1  0  0  0  0
 16 20  2  0  0  0  0
 16 21  1  0  0  0  0
 18 38  1  0  0  0  0
 18 39  1  0  0  0  0
 18 40  1  0  0  0  0
 19 41  1  0  0  0  0
 19 42  1  0  0  0  0
 19 43  1  0  0  0  0
 20 22  1  0  0  0  0
 20 44  1  0  0  0  0
 21 24  2  0  0  0  0
 21 45  1  0  0  0  0
 22 23  2  0  0  0  0
 23 24  1  0  0  0  0
 24 46  1  0  0  0  0
 25 47  1  0  0  0  0
 25 48  1  0  0  0  0
 25 49  1  0  0  0  0
 26 50  1  0  0  0  0
 26 51  1  0  0  0  0
 26 52  1  0  0  0  0
M  END
> <PUBCHEM_COMPOUND_CID>
3792

> <PUBCHEM_CONFORMER_RMSD>
1

> <PUBCHEM_CONFORMER_DIVERSEORDER>
3
48
20
70
5
12
34
75
67
32
53
2
49
54
15
25
91
45
50
19
65
41
85
99
46
77
35
22
69
30
74
96
27
63
39
55
18
52
28
31
97
26
10
59
66
78
23
47
73
16
87
82
4
21
14
37
44
33
56
11
80
64
83
62
93
8
17
92
51
29
100
61
60
42
71
36
81
94
84
7
79
98
9
95
58
40
76
88
43
86
1
57
13
38
24
68
89
90
72
6

> <PUBCHEM_MMFF94_PARTIAL_CHARGES>
34
1 -0.36
10 0.44
11 0.08
12 -0.15
13 -0.15
14 -0.15
15 -0.15
16 0.09
17 0.54
18 0.27
19 0.27
2 -0.36
20 -0.15
21 -0.15
22 0.08
23 0.08
24 -0.15
25 0.28
26 0.28
3 -0.36
33 0.15
34 0.15
35 0.15
36 0.15
37 0.37
4 -0.57
44 0.15
45 0.15
46 0.15
5 -0.81
6 -0.73
7 0.27
8 -0.14
9 0.28

> <PUBCHEM_EFFECTIVE_ROTOR_COUNT>
10

> <PUBCHEM_PHARMACOPHORE_FEATURES>
8
1 1 acceptor
1 2 acceptor
1 3 acceptor
1 4 acceptor
1 5 cation
1 6 donor
6 16 20 21 22 23 24 rings
6 8 11 12 13 14 15 rings

> <PUBCHEM_HEAVY_ATOM_COUNT>
26

> <PUBCHEM_ATOM_DEF_STEREO_COUNT>
0

> <PUBCHEM_ATOM_UDEF_STEREO_COUNT>
0

> <PUBCHEM_BOND_DEF_STEREO_COUNT>
0

> <PUBCHEM_BOND_UDEF_STEREO_COUNT>
0

> <PUBCHEM_ISOTOPIC_ATOM_COUNT>
0

> <PUBCHEM_COMPONENT_COUNT>
1

> <PUBCHEM_CACTVS_TAUTO_COUNT>
2

> <PUBCHEM_CONFORMER_ID>
00000ED000000003

> <PUBCHEM_MMFF94_ENERGY>
92.0968

> <PUBCHEM_FEATURE_SELFOVERLAP>
40.599

> <PUBCHEM_SHAPE_FINGERPRINT>
10622 236 16915125011983611971
10981352 41 18188211996820521679
11796584 16 18269003157229914336
11809386 21 18060145375095272537
12633257 1 14996292400788297053
12717326 120 18338802334007274242
12778500 126 7420953037423675476
12988421 55 5328463653720207205
13103583 49 14851901265168606812
13383661 66 18260818332496098898
1361 4 17982164523246123707
1361 87 17559382579707611107
13782708 43 18409451396843891427
14123256 34 18413100654873119471
14251740 57 18338235955999368385
14251764 30 18411416194532742199
14429114 114 9006244312652299215
14765038 42 15357989919072269552
15510800 12 18407763634132762119
19438510 23 8286208236491512269
20398071 356 18410569549299839779
20621476 21 18408881845894923431
20775438 99 17342095906029915283
21095086 4 18188196697730607078
21307412 95 18341056306947012341
21315759 148 17895198852387950008
21344244 246 18270386210700446276
21585481 104 15195299667889057903
21585482 310 18270106930272460395
21781055 127 13985247454037340874
229767 8 18044080478973753438
270888 7 9151178632236301389
2748736 6 8286210418435417139
2838139 119 10663827347438997009
3388396 114 16701150046419438260
3862424 121 18189031223214504086
439807 62 17917996066707502315
5104073 3 16806741779295443480
56633871 153 18040435469415520159
5718773 13 18200887218088301707
636775 8 18263067959989632926
7970288 3 18410291415443675671
999808 66 18040994076761164623

> <PUBCHEM_SHAPE_MULTIPOLES>
501.63
20.51
3.69
2.01
14.91
1.01
0.42
25.88
2.73
5.07
-0.99
-3.61
0.68
2.95

> <PUBCHEM_SHAPE_SELFOVERLAP>
1043.185

> <PUBCHEM_SHAPE_VOLUME>
287.1

> <PUBCHEM_COORDINATE_TYPE>
2
5
10

$$$$

