17395295
  -OEChem-06241222493D

 37 38  0     1  0  0  0  0  0999 V2000
   -4.8251    3.2537   -0.6449 Cl  0  0  0  0  0  0  0  0  0  0  0  0
    5.6192    1.2767   -1.0886 S   0  0  0  0  0  0  0  0  0  0  0  0
   -1.0654   -0.2333    0.1074 O   0  0  0  0  0  0  0  0  0  0  0  0
    0.8980    1.4619    0.8269 O   0  0  0  0  0  0  0  0  0  0  0  0
   -1.8936   -2.2635   -0.5943 O   0  0  0  0  0  0  0  0  0  0  0  0
    2.5454   -0.1414    0.4717 N   0  0  0  0  0  0  0  0  0  0  0  0
   -4.4727   -2.5768    0.3384 N   0  0  0  0  0  0  0  0  0  0  0  0
    3.6856    0.6718    0.8272 C   0  0  2  0  0  0  0  0  0  0  0  0
    4.8989    0.2152    0.0456 C   0  0  0  0  0  0  0  0  0  0  0  0
    3.9143    0.6556    2.3349 C   0  0  0  0  0  0  0  0  0  0  0  0
    5.5529   -0.9956    0.1084 C   0  0  0  0  0  0  0  0  0  0  0  0
    1.2417    0.3283    0.5029 C   0  0  0  0  0  0  0  0  0  0  0  0
    0.2530   -0.7375    0.0808 C   0  0  0  0  0  0  0  0  0  0  0  0
    6.6602   -1.0525   -0.7865 C   0  0  0  0  0  0  0  0  0  0  0  0
    6.8102    0.1168   -1.4990 C   0  0  0  0  0  0  0  0  0  0  0  0
   -3.3890   -0.4518   -0.1864 C   0  0  0  0  0  0  0  0  0  0  0  0
   -4.5397   -1.1857    0.1017 C   0  0  0  0  0  0  0  0  0  0  0  0
   -2.0558   -1.1018   -0.2544 C   0  0  0  0  0  0  0  0  0  0  0  0
   -3.4771    0.9210   -0.4174 C   0  0  0  0  0  0  0  0  0  0  0  0
   -5.7787   -0.5471    0.1583 C   0  0  0  0  0  0  0  0  0  0  0  0
   -4.7157    1.5599   -0.3603 C   0  0  0  0  0  0  0  0  0  0  0  0
   -5.8665    0.8259   -0.0724 C   0  0  0  0  0  0  0  0  0  0  0  0
    3.4427    1.7067    0.5519 H   0  0  0  0  0  0  0  0  0  0  0  0
    2.7041   -1.1156    0.2287 H   0  0  0  0  0  0  0  0  0  0  0  0
    3.0396    1.0429    2.8687 H   0  0  0  0  0  0  0  0  0  0  0  0
    4.7780    1.2717    2.6081 H   0  0  0  0  0  0  0  0  0  0  0  0
    4.0972   -0.3603    2.7035 H   0  0  0  0  0  0  0  0  0  0  0  0
    5.2560   -1.8060    0.7619 H   0  0  0  0  0  0  0  0  0  0  0  0
    0.3414   -1.5838    0.7722 H   0  0  0  0  0  0  0  0  0  0  0  0
    0.5066   -1.0616   -0.9353 H   0  0  0  0  0  0  0  0  0  0  0  0
    7.3133   -1.9077   -0.9019 H   0  0  0  0  0  0  0  0  0  0  0  0
    7.5621    0.3455   -2.2410 H   0  0  0  0  0  0  0  0  0  0  0  0
   -2.5921    1.5063   -0.6569 H   0  0  0  0  0  0  0  0  0  0  0  0
   -6.6834   -1.1071    0.3815 H   0  0  0  0  0  0  0  0  0  0  0  0
   -6.8384    1.3104   -0.0247 H   0  0  0  0  0  0  0  0  0  0  0  0
   -3.5875   -3.0636    0.3182 H   0  0  0  0  0  0  0  0  0  0  0  0
   -5.3183   -3.0907    0.5489 H   0  0  0  0  0  0  0  0  0  0  0  0
  1 21  1  0  0  0  0
  2  9  1  0  0  0  0
  2 15  1  0  0  0  0
  3 13  1  0  0  0  0
  3 18  1  0  0  0  0
  4 12  2  0  0  0  0
  5 18  2  0  0  0  0
  6  8  1  0  0  0  0
  6 12  1  0  0  0  0
  6 24  1  0  0  0  0
  7 17  1  0  0  0  0
  7 36  1  0  0  0  0
  7 37  1  0  0  0  0
  8  9  1  0  0  0  0
  8 10  1  0  0  0  0
  8 23  1  0  0  0  0
  9 11  2  0  0  0  0
 10 25  1  0  0  0  0
 10 26  1  0  0  0  0
 10 27  1  0  0  0  0
 11 14  1  0  0  0  0
 11 28  1  0  0  0  0
 12 13  1  0  0  0  0
 13 29  1  0  0  0  0
 13 30  1  0  0  0  0
 14 15  2  0  0  0  0
 14 31  1  0  0  0  0
 15 32  1  0  0  0  0
 16 17  2  0  0  0  0
 16 18  1  0  0  0  0
 16 19  1  0  0  0  0
 17 20  1  0  0  0  0
 19 21  2  0  0  0  0
 19 33  1  0  0  0  0
 20 22  2  0  0  0  0
 20 34  1  0  0  0  0
 21 22  1  0  0  0  0
 22 35  1  0  0  0  0
M  END
> <PUBCHEM_COMPOUND_CID>
17395295

> <PUBCHEM_CONFORMER_RMSD>
1.2

> <PUBCHEM_CONFORMER_DIVERSEORDER>
1
99
95
76
112
63
41
65
83
7
111
80
78
74
117
71
91
70
48
103
62
20
15
58
2
4
69
29
108
37
81
97
96
53
114
45
59
55
100
36
22
94
5
12
52
9
89
47
38
57
46
10
14
87
79
28
119
23
90
13
18
21
93
73
110
8
6
77
33
49
105
92
11
84
44
67
35
30
102
115
51
19
109
85
104
42
101
88
32
3
60
43
86
34
25
26
56
40
82
72
68
113
107
27
54
75
24
64
116
66
17
106
31
50
16
98
118
39
61

> <PUBCHEM_MMFF94_PARTIAL_CHARGES>
30
1 -0.18
11 -0.15
12 0.57
13 0.34
14 -0.15
15 -0.11
16 0.09
17 0.1
18 0.63
19 -0.15
2 -0.08
20 -0.15
21 0.18
22 -0.15
24 0.37
28 0.15
3 -0.43
31 0.15
32 0.15
33 0.15
34 0.15
35 0.15
36 0.4
37 0.4
4 -0.57
5 -0.57
6 -0.73
7 -0.9
8 0.48
9 -0.14

> <PUBCHEM_EFFECTIVE_ROTOR_COUNT>
7

> <PUBCHEM_PHARMACOPHORE_FEATURES>
7
1 4 acceptor
1 5 acceptor
1 6 donor
1 7 cation
1 7 donor
5 2 9 11 14 15 rings
6 16 17 19 20 21 22 rings

> <PUBCHEM_HEAVY_ATOM_COUNT>
22

> <PUBCHEM_ATOM_DEF_STEREO_COUNT>
0

> <PUBCHEM_ATOM_UDEF_STEREO_COUNT>
1

> <PUBCHEM_BOND_DEF_STEREO_COUNT>
0

> <PUBCHEM_BOND_UDEF_STEREO_COUNT>
0

> <PUBCHEM_ISOTOPIC_ATOM_COUNT>
0

> <PUBCHEM_COMPONENT_COUNT>
1

> <PUBCHEM_CACTVS_TAUTO_COUNT>
4

> <PUBCHEM_CONFORMER_ID>
01096E5F00000001

> <PUBCHEM_MMFF94_ENERGY>
52.8978

> <PUBCHEM_FEATURE_SELFOVERLAP>
35.52

> <PUBCHEM_SHAPE_FINGERPRINT>
10066227 112 18334577910999997352
10411042 1 18052816946009196243
10638233 991 17418089897661262316
10670039 82 18341614857920602692
10912923 1 17418104208233478824
11524674 6 16805319968742621759
11724838 91 10519694571857082026
11796584 16 18260264136629889230
12107183 9 17697053787440193281
12166972 35 18335698308531650584
12236239 1 17775286066675160956
12390115 104 18335136553327905449
12403259 415 18186809062368455176
12596602 18 16702305672005834329
12616971 3 14273735118563600192
13533116 47 5761661365397371300
13668630 136 15864069866729279012
13782708 43 17604996905806695295
13914758 101 15068612829644403659
13955234 65 15123523519063672184
13964095 4 18409726288068111116
14251732 16 9511451222185094366
14251752 14 18411418440652736926
14251758 9 17385446518460929806
14933364 13 18342735217524822436
15183329 4 18334008419657851344
15778101 99 18339078293902422565
16120349 189 17629494253176815957
17834072 8 17967813851507817972
17844677 252 18411696552401373800
17857418 61 6122501298381163980
19377110 9 16486988288579661544
20281389 69 18413110571435920632
20567600 75 18186800292234952542
21267235 1 18340484470621806811
21279426 13 18114186358314725504
21315764 119 18338227267639062862
220451 1 17275108322899987259
22061861 79 17240483606830433460
2215653 11 17603303756846970686
22224240 67 14405180668992665393
2297311 6 18410571769497011097
2303208 19 18040713619686551450
23081809 10 17418100922794422418
23198884 109 17775563139225899921
23402539 116 14418131816371543939
23522609 53 17560223838856553052
23536379 177 18272931631145832910
23559900 14 17603593984919519328
29717793 49 15574711396443667280
3004659 81 18411698799476196166
3545911 37 18334296478909162579
394071 54 15482660265939541854
4015057 19 15647629864577548931
4073 2 17917986149317208602
44062 13 18041282045623340966
445580 37 18341887519581964045
531348 171 18114186362836539839
542803 24 17775569728048668618
6327066 14 17985837162713620429
8988823 20 14779271908679475394
90127 26 18341613668346180016

> <PUBCHEM_SHAPE_MULTIPOLES>
430.9
19.77
2.25
1.2
12.53
0.63
0.46
2.03
-4.87
-4.2
-0.41
2.29
0.3
0.64

> <PUBCHEM_SHAPE_SELFOVERLAP>
886.081

> <PUBCHEM_SHAPE_VOLUME>
249.3

> <PUBCHEM_COORDINATE_TYPE>
2
5
10

$$$$

