4050
  -OEChem-06251223502D

 69 69  0     1  0  0  0  0  0999 V2000
    2.8660   -3.5000    0.0000 O   0  0  0  0  0  0  0  0  0  0  0  0
    3.7320   -5.0000    0.0000 N   0  0  0  0  0  0  0  0  0  0  0  0
    5.4641   -1.0000    0.0000 C   0  0  0  0  0  0  0  0  0  0  0  0
    5.4641   -2.0000    0.0000 C   0  0  0  0  0  0  0  0  0  0  0  0
    6.3301   -0.5000    0.0000 C   0  0  0  0  0  0  0  0  0  0  0  0
    4.5981   -2.5000    0.0000 C   0  0  0  0  0  0  0  0  0  0  0  0
    6.3301    0.5000    0.0000 C   0  0  0  0  0  0  0  0  0  0  0  0
    4.5981   -3.5000    0.0000 C   0  0  0  0  0  0  0  0  0  0  0  0
    7.1962    1.0000    0.0000 C   0  0  0  0  0  0  0  0  0  0  0  0
    3.7320   -4.0000    0.0000 C   0  0  0  0  0  0  0  0  0  0  0  0
    2.8660   -5.5000    0.0000 C   0  0  3  0  0  0  0  0  0  0  0  0
    7.1962    2.0000    0.0000 C   0  0  0  0  0  0  0  0  0  0  0  0
    9.7942    6.5000    0.0000 C   0  0  0  0  0  0  0  0  0  0  0  0
    2.8660   -6.5000    0.0000 C   0  0  0  0  0  0  0  0  0  0  0  0
   10.6603    7.0000    0.0000 C   0  0  0  0  0  0  0  0  0  0  0  0
    9.7942    5.5000    0.0000 C   0  0  0  0  0  0  0  0  0  0  0  0
    2.0000   -5.0000    0.0000 C   0  0  0  0  0  0  0  0  0  0  0  0
    8.0622    2.5000    0.0000 C   0  0  0  0  0  0  0  0  0  0  0  0
   10.6603    8.0000    0.0000 C   0  0  0  0  0  0  0  0  0  0  0  0
    8.0622    3.5000    0.0000 C   0  0  0  0  0  0  0  0  0  0  0  0
    8.9282    5.0000    0.0000 C   0  0  0  0  0  0  0  0  0  0  0  0
    8.9282    4.0000    0.0000 C   0  0  0  0  0  0  0  0  0  0  0  0
    2.0000   -7.0000    0.0000 C   0  0  0  0  0  0  0  0  0  0  0  0
    3.7320   -7.0000    0.0000 C   0  0  0  0  0  0  0  0  0  0  0  0
   11.5263    8.5000    0.0000 C   0  0  0  0  0  0  0  0  0  0  0  0
    2.0000   -8.0000    0.0000 C   0  0  0  0  0  0  0  0  0  0  0  0
    3.7320   -8.0000    0.0000 C   0  0  0  0  0  0  0  0  0  0  0  0
    2.8660   -8.5000    0.0000 C   0  0  0  0  0  0  0  0  0  0  0  0
    5.2520   -0.4174    0.0000 H   0  0  0  0  0  0  0  0  0  0  0  0
    4.8535   -1.1077    0.0000 H   0  0  0  0  0  0  0  0  0  0  0  0
    5.6762   -2.5826    0.0000 H   0  0  0  0  0  0  0  0  0  0  0  0
    6.0747   -1.8923    0.0000 H   0  0  0  0  0  0  0  0  0  0  0  0
    6.5422   -1.0826    0.0000 H   0  0  0  0  0  0  0  0  0  0  0  0
    6.9407   -0.3923    0.0000 H   0  0  0  0  0  0  0  0  0  0  0  0
    4.3860   -1.9174    0.0000 H   0  0  0  0  0  0  0  0  0  0  0  0
    3.9875   -2.6077    0.0000 H   0  0  0  0  0  0  0  0  0  0  0  0
    6.1181    1.0826    0.0000 H   0  0  0  0  0  0  0  0  0  0  0  0
    5.7196    0.3923    0.0000 H   0  0  0  0  0  0  0  0  0  0  0  0
    4.8101   -4.0826    0.0000 H   0  0  0  0  0  0  0  0  0  0  0  0
    5.2087   -3.3923    0.0000 H   0  0  0  0  0  0  0  0  0  0  0  0
    7.4082    0.4174    0.0000 H   0  0  0  0  0  0  0  0  0  0  0  0
    7.8067    1.1077    0.0000 H   0  0  0  0  0  0  0  0  0  0  0  0
    2.8660   -4.6500    0.0000 H   0  0  0  0  0  0  0  0  0  0  0  0
    4.2690   -5.3100    0.0000 H   0  0  0  0  0  0  0  0  0  0  0  0
    6.6592    2.3100    0.0000 H   0  0  0  0  0  0  0  0  0  0  0  0
    9.5822    7.0826    0.0000 H   0  0  0  0  0  0  0  0  0  0  0  0
    9.1836    6.3923    0.0000 H   0  0  0  0  0  0  0  0  0  0  0  0
   10.8723    6.4174    0.0000 H   0  0  0  0  0  0  0  0  0  0  0  0
   11.2708    7.1077    0.0000 H   0  0  0  0  0  0  0  0  0  0  0  0
   10.0063    4.9174    0.0000 H   0  0  0  0  0  0  0  0  0  0  0  0
   10.4048    5.6077    0.0000 H   0  0  0  0  0  0  0  0  0  0  0  0
    2.3100   -4.4631    0.0000 H   0  0  0  0  0  0  0  0  0  0  0  0
    1.4631   -4.6900    0.0000 H   0  0  0  0  0  0  0  0  0  0  0  0
    1.6900   -5.5369    0.0000 H   0  0  0  0  0  0  0  0  0  0  0  0
    8.5991    2.1900    0.0000 H   0  0  0  0  0  0  0  0  0  0  0  0
   10.4482    8.5826    0.0000 H   0  0  0  0  0  0  0  0  0  0  0  0
   10.0497    7.8923    0.0000 H   0  0  0  0  0  0  0  0  0  0  0  0
    7.8501    4.0826    0.0000 H   0  0  0  0  0  0  0  0  0  0  0  0
    7.4516    3.3923    0.0000 H   0  0  0  0  0  0  0  0  0  0  0  0
    8.3913    5.3100    0.0000 H   0  0  0  0  0  0  0  0  0  0  0  0
    9.4651    3.6900    0.0000 H   0  0  0  0  0  0  0  0  0  0  0  0
    1.4631   -6.6900    0.0000 H   0  0  0  0  0  0  0  0  0  0  0  0
    4.2690   -6.6900    0.0000 H   0  0  0  0  0  0  0  0  0  0  0  0
   11.8363    7.9631    0.0000 H   0  0  0  0  0  0  0  0  0  0  0  0
   12.0632    8.8100    0.0000 H   0  0  0  0  0  0  0  0  0  0  0  0
   11.2163    9.0369    0.0000 H   0  0  0  0  0  0  0  0  0  0  0  0
    1.4631   -8.3100    0.0000 H   0  0  0  0  0  0  0  0  0  0  0  0
    4.2690   -8.3100    0.0000 H   0  0  0  0  0  0  0  0  0  0  0  0
    2.8660   -9.1200    0.0000 H   0  0  0  0  0  0  0  0  0  0  0  0
  1 10  2  0  0  0  0
  2 10  1  0  0  0  0
  2 11  1  0  0  0  0
  2 44  1  0  0  0  0
  3  4  1  0  0  0  0
  3  5  1  0  0  0  0
  3 29  1  0  0  0  0
  3 30  1  0  0  0  0
  4  6  1  0  0  0  0
  4 31  1  0  0  0  0
  4 32  1  0  0  0  0
  5  7  1  0  0  0  0
  5 33  1  0  0  0  0
  5 34  1  0  0  0  0
  6  8  1  0  0  0  0
  6 35  1  0  0  0  0
  6 36  1  0  0  0  0
  7  9  1  0  0  0  0
  7 37  1  0  0  0  0
  7 38  1  0  0  0  0
  8 10  1  0  0  0  0
  8 39  1  0  0  0  0
  8 40  1  0  0  0  0
  9 12  1  0  0  0  0
  9 41  1  0  0  0  0
  9 42  1  0  0  0  0
 11 14  1  0  0  0  0
 11 17  1  0  0  0  0
 11 43  1  0  0  0  0
 12 18  2  3  0  0  0
 12 45  1  0  0  0  0
 13 15  1  0  0  0  0
 13 16  1  0  0  0  0
 13 46  1  0  0  0  0
 13 47  1  0  0  0  0
 14 23  2  0  0  0  0
 14 24  1  0  0  0  0
 15 19  1  0  0  0  0
 15 48  1  0  0  0  0
 15 49  1  0  0  0  0
 16 21  1  0  0  0  0
 16 50  1  0  0  0  0
 16 51  1  0  0  0  0
 17 52  1  0  0  0  0
 17 53  1  0  0  0  0
 17 54  1  0  0  0  0
 18 20  1  0  0  0  0
 18 55  1  0  0  0  0
 19 25  1  0  0  0  0
 19 56  1  0  0  0  0
 19 57  1  0  0  0  0
 20 22  1  0  0  0  0
 20 58  1  0  0  0  0
 20 59  1  0  0  0  0
 21 22  2  3  0  0  0
 21 60  1  0  0  0  0
 22 61  1  0  0  0  0
 23 26  1  0  0  0  0
 23 62  1  0  0  0  0
 24 27  2  0  0  0  0
 24 63  1  0  0  0  0
 25 64  1  0  0  0  0
 25 65  1  0  0  0  0
 25 66  1  0  0  0  0
 26 28  2  0  0  0  0
 26 67  1  0  0  0  0
 27 28  1  0  0  0  0
 27 68  1  0  0  0  0
 28 69  1  0  0  0  0
M  END
> <PUBCHEM_COMPOUND_CID>
4050

> <PUBCHEM_COMPOUND_CANONICALIZED>
1

> <PUBCHEM_CACTVS_COMPLEXITY>
420

> <PUBCHEM_CACTVS_HBOND_ACCEPTOR>
1

> <PUBCHEM_CACTVS_HBOND_DONOR>
1

> <PUBCHEM_CACTVS_ROTATABLE_BOND>
16

> <PUBCHEM_CACTVS_SUBSKEYS>
AAADcfB6IAAAAAAAAAAAAAAAAAAAAAAAAAAwAAAAAAAAAAABAAAAHgAQAAAADCjBmAQyAILAAACIAiFSEACCAAAgAAAIiIEIBIgIIDKAkRGEIAhglgCIiAcYiICOAAAAAAAAAAAAAAAAAAAAAAAAAAAAAA==

> <PUBCHEM_IUPAC_OPENEYE_NAME>
N-(1-phenylethyl)octadeca-9,12-dienamide

> <PUBCHEM_IUPAC_CAS_NAME>
N-(1-phenylethyl)octadeca-9,12-dienamide

> <PUBCHEM_IUPAC_NAME>
N-(1-phenylethyl)octadeca-9,12-dienamide

> <PUBCHEM_IUPAC_SYSTEMATIC_NAME>
N-(1-phenylethyl)octadeca-9,12-dienamide

> <PUBCHEM_IUPAC_TRADITIONAL_NAME>
N-(1-phenylethyl)octadeca-9,12-dienamide

> <PUBCHEM_IUPAC_INCHI>
InChI=1S/C26H41NO/c1-3-4-5-6-7-8-9-10-11-12-13-14-15-16-20-23-26(28)27-24(2)25-21-18-17-19-22-25/h7-8,10-11,17-19,21-22,24H,3-6,9,12-16,20,23H2,1-2H3,(H,27,28)

> <PUBCHEM_IUPAC_INCHIKEY>
RWIUTHWKQHRQNP-UHFFFAOYSA-N

> <PUBCHEM_XLOGP3_AA>
8.2

> <PUBCHEM_EXACT_MASS>
383.318815

> <PUBCHEM_MOLECULAR_FORMULA>
C26H41NO

> <PUBCHEM_MOLECULAR_WEIGHT>
383.60984

> <PUBCHEM_OPENEYE_CAN_SMILES>
CCCCCC=CCC=CCCCCCCCC(=O)NC(C)C1=CC=CC=C1

> <PUBCHEM_OPENEYE_ISO_SMILES>
CCCCCC=CCC=CCCCCCCCC(=O)NC(C)C1=CC=CC=C1

> <PUBCHEM_CACTVS_TPSA>
29.1

> <PUBCHEM_MONOISOTOPIC_WEIGHT>
383.318815

> <PUBCHEM_TOTAL_CHARGE>
0

> <PUBCHEM_HEAVY_ATOM_COUNT>
28

> <PUBCHEM_ATOM_DEF_STEREO_COUNT>
0

> <PUBCHEM_ATOM_UDEF_STEREO_COUNT>
1

> <PUBCHEM_BOND_DEF_STEREO_COUNT>
0

> <PUBCHEM_BOND_UDEF_STEREO_COUNT>
2

> <PUBCHEM_ISOTOPIC_ATOM_COUNT>
0

> <PUBCHEM_COMPONENT_COUNT>
1

> <PUBCHEM_CACTVS_TAUTO_COUNT>
2

> <PUBCHEM_COORDINATE_TYPE>
1
5
255

> <PUBCHEM_BONDANNOTATIONS>
11  43  3
12  18  1
14  23  8
14  24  8
21  22  1
23  26  8
24  27  8
26  28  8
27  28  8

$$$$

