582864
  -OEChem-06241222443D

 41 41  0     1  0  0  0  0  0999 V2000
    2.8820   -0.4635   -0.4509 Si  0  0  0  0  0  0  0  0  0  0  0  0
    1.2196   -0.3317   -0.3072 O   0  0  0  0  0  0  0  0  0  0  0  0
   -0.8552    0.5314    0.5380 C   0  0  1  0  0  0  0  0  0  0  0  0
    0.6678    0.6190    0.6051 C   0  0  0  0  0  0  0  0  0  0  0  0
   -1.3721    0.9277   -0.8486 C   0  0  0  0  0  0  0  0  0  0  0  0
   -1.3366   -0.8827    0.9000 C   0  0  0  0  0  0  0  0  0  0  0  0
   -2.9027    0.8929   -0.9002 C   0  0  0  0  0  0  0  0  0  0  0  0
    1.1721    0.2923    2.0104 C   0  0  0  0  0  0  0  0  0  0  0  0
    1.1469    2.0032    0.1715 C   0  0  0  0  0  0  0  0  0  0  0  0
   -3.5052   -0.3148   -0.2271 C   0  0  0  0  0  0  0  0  0  0  0  0
   -2.7824   -1.1175    0.5727 C   0  0  0  0  0  0  0  0  0  0  0  0
    3.3016   -1.7907   -1.7209 C   0  0  0  0  0  0  0  0  0  0  0  0
    3.6736   -0.9529    1.1839 C   0  0  0  0  0  0  0  0  0  0  0  0
    3.6491    1.1546   -1.0268 C   0  0  0  0  0  0  0  0  0  0  0  0
   -4.9585   -0.5673   -0.5000 C   0  0  0  0  0  0  0  0  0  0  0  0
   -1.2862    1.2355    1.2653 H   0  0  0  0  0  0  0  0  0  0  0  0
   -0.9753    0.2447   -1.6111 H   0  0  0  0  0  0  0  0  0  0  0  0
   -1.0598    1.9373   -1.1342 H   0  0  0  0  0  0  0  0  0  0  0  0
   -1.2060   -1.0486    1.9759 H   0  0  0  0  0  0  0  0  0  0  0  0
   -0.7544   -1.6553    0.3844 H   0  0  0  0  0  0  0  0  0  0  0  0
   -3.2139    0.9269   -1.9512 H   0  0  0  0  0  0  0  0  0  0  0  0
   -3.3029    1.7931   -0.4170 H   0  0  0  0  0  0  0  0  0  0  0  0
    2.1326    0.7495    2.2513 H   0  0  0  0  0  0  0  0  0  0  0  0
    0.4950    0.7372    2.7527 H   0  0  0  0  0  0  0  0  0  0  0  0
    1.1919   -0.7803    2.2235 H   0  0  0  0  0  0  0  0  0  0  0  0
    1.1724    2.1419   -0.9128 H   0  0  0  0  0  0  0  0  0  0  0  0
    2.0999    2.2941    0.6159 H   0  0  0  0  0  0  0  0  0  0  0  0
    0.4589    2.7661    0.5623 H   0  0  0  0  0  0  0  0  0  0  0  0
   -3.2461   -1.9906    1.0245 H   0  0  0  0  0  0  0  0  0  0  0  0
    2.8791   -1.5331   -2.6965 H   0  0  0  0  0  0  0  0  0  0  0  0
    4.3854   -1.8919   -1.8292 H   0  0  0  0  0  0  0  0  0  0  0  0
    2.8932   -2.7575   -1.4122 H   0  0  0  0  0  0  0  0  0  0  0  0
    4.6399   -1.4226    0.9652 H   0  0  0  0  0  0  0  0  0  0  0  0
    3.9030   -0.1016    1.8277 H   0  0  0  0  0  0  0  0  0  0  0  0
    3.0873   -1.6990    1.7254 H   0  0  0  0  0  0  0  0  0  0  0  0
    3.8692    1.8473   -0.2123 H   0  0  0  0  0  0  0  0  0  0  0  0
    4.6198    0.9234   -1.4816 H   0  0  0  0  0  0  0  0  0  0  0  0
    3.0598    1.6459   -1.8044 H   0  0  0  0  0  0  0  0  0  0  0  0
   -5.5581    0.2924   -0.1837 H   0  0  0  0  0  0  0  0  0  0  0  0
   -5.3321   -1.4481    0.0326 H   0  0  0  0  0  0  0  0  0  0  0  0
   -5.1215   -0.7306   -1.5702 H   0  0  0  0  0  0  0  0  0  0  0  0
  1  2  1  0  0  0  0
  1 12  1  0  0  0  0
  1 13  1  0  0  0  0
  1 14  1  0  0  0  0
  2  4  1  0  0  0  0
  3  4  1  0  0  0  0
  3  5  1  0  0  0  0
  3  6  1  0  0  0  0
  3 16  1  0  0  0  0
  4  8  1  0  0  0  0
  4  9  1  0  0  0  0
  5  7  1  0  0  0  0
  5 17  1  0  0  0  0
  5 18  1  0  0  0  0
  6 11  1  0  0  0  0
  6 19  1  0  0  0  0
  6 20  1  0  0  0  0
  7 10  1  0  0  0  0
  7 21  1  0  0  0  0
  7 22  1  0  0  0  0
  8 23  1  0  0  0  0
  8 24  1  0  0  0  0
  8 25  1  0  0  0  0
  9 26  1  0  0  0  0
  9 27  1  0  0  0  0
  9 28  1  0  0  0  0
 10 11  2  0  0  0  0
 10 15  1  0  0  0  0
 11 29  1  0  0  0  0
 12 30  1  0  0  0  0
 12 31  1  0  0  0  0
 12 32  1  0  0  0  0
 13 33  1  0  0  0  0
 13 34  1  0  0  0  0
 13 35  1  0  0  0  0
 14 36  1  0  0  0  0
 14 37  1  0  0  0  0
 14 38  1  0  0  0  0
 15 39  1  0  0  0  0
 15 40  1  0  0  0  0
 15 41  1  0  0  0  0
M  END
> <PUBCHEM_COMPOUND_CID>
582864

> <PUBCHEM_CONFORMER_RMSD>
0.6

> <PUBCHEM_CONFORMER_DIVERSEORDER>
1
10
4
12
6
7
9
8
11
5
3
2

> <PUBCHEM_MMFF94_PARTIAL_CHARGES>
12
1 0.54
10 -0.28
11 -0.29
12 -0.08
13 -0.08
14 -0.08
15 0.14
2 -0.58
29 0.15
4 0.28
6 0.14
7 0.14

> <PUBCHEM_EFFECTIVE_ROTOR_COUNT>
3.8

> <PUBCHEM_PHARMACOPHORE_FEATURES>
2
3 4 8 9 hydrophobe
6 3 5 6 7 10 11 rings

> <PUBCHEM_HEAVY_ATOM_COUNT>
15

> <PUBCHEM_ATOM_DEF_STEREO_COUNT>
0

> <PUBCHEM_ATOM_UDEF_STEREO_COUNT>
1

> <PUBCHEM_BOND_DEF_STEREO_COUNT>
0

> <PUBCHEM_BOND_UDEF_STEREO_COUNT>
0

> <PUBCHEM_ISOTOPIC_ATOM_COUNT>
0

> <PUBCHEM_COMPONENT_COUNT>
1

> <PUBCHEM_CACTVS_TAUTO_COUNT>
1

> <PUBCHEM_CONFORMER_ID>
0008E4D000000001

> <PUBCHEM_MMFF94_ENERGY>
44.7057

> <PUBCHEM_FEATURE_SELFOVERLAP>
10.148

> <PUBCHEM_SHAPE_FINGERPRINT>
10465860 71 18200866361674234644
10498660 4 17131846390723975989
12251169 10 5689591680308969386
12507560 40 6483360984568287234
12553582 1 16153708755978454044
12616999 72 18261104158817090230
12932764 1 17703491286302776408
13296908 3 17895191168469826654
13675066 3 14779264198769898223
13705890 14 18408322202966002132
14115302 16 17060624399241579202
14252887 29 17749393680448802850
15342168 16 12822995513659860247
15375462 189 16515407378185533510
15775835 57 16917073260820578653
16945 1 17675927586361720216
1813 80 16515949437755955420
18186145 218 17774707740955097716
19862831 5 16774078483467109291
200 152 17968089859007108758
20201158 50 18408882940626520791
20279233 1 18186805772602906162
20281407 28 17749106703291619926
20281475 54 17894905248001653863
20361792 2 16950280728082493696
20645476 183 16200154270767744915
20645477 70 18335700520381279038
20653085 51 13758057598474519202
20671657 53 18411419544190462640
20871999 31 18271232915249766132
21501925 9 14273737335141251601
21524375 3 13542456532242297844
22485316 2 17385445427359934135
2255824 54 16733553710751761240
231179 274 12103850063725216918
23402539 116 18059306459953878348
23526113 38 18410005542082850442
23557571 272 18338241561047701944
23559900 14 17917712379669510360
25 1 13183014129565468646
2748010 2 17843397376311099027
3082319 5 17132110268924158010
31174 14 16226338113780881586
42 15 5256412703458076885
474 4 14261342549056432374
4990 188 18342740715246433119
7364860 26 18190746332046015312
81228 2 17972593557419247064
9882013 296 14201408187474881386
9981440 41 15694028036079440860

> <PUBCHEM_SHAPE_MULTIPOLES>
321.04
8
1.6
1.52
4.76
0.08
-0.3
-2.72
2.1
-0.98
0.35
-0.97
-0.12
0.52

> <PUBCHEM_SHAPE_SELFOVERLAP>
616.1

> <PUBCHEM_SHAPE_VOLUME>
200

> <PUBCHEM_COORDINATE_TYPE>
2
5
10

$$$$

