11792
  -OEChem-06261206072D

 66 65  0     1  0  0  0  0  0999 V2000
    2.5000    5.6200    0.0000 I   0  5  0  0  0  0  0  0  0  0  0  0
    0.0000    5.6200    0.0000 I   0  5  0  0  0  0  0  0  0  0  0  0
    8.1350   10.1200    0.0000 N   0  3  0  0  0  0  0  0  0  0  0  0
    7.2690    1.6200    0.0000 N   0  3  0  0  0  0  0  0  0  0  0  0
    8.1350    6.1200    0.0000 C   0  0  3  0  0  0  0  0  0  0  0  0
    7.2690    5.6200    0.0000 C   0  0  3  0  0  0  0  0  0  0  0  0
    9.0010    5.6200    0.0000 C   0  0  0  0  0  0  0  0  0  0  0  0
    6.4030    6.1200    0.0000 C   0  0  0  0  0  0  0  0  0  0  0  0
    7.2690    4.6200    0.0000 C   0  0  0  0  0  0  0  0  0  0  0  0
    8.1350    7.1200    0.0000 C   0  0  0  0  0  0  0  0  0  0  0  0
    8.1350    9.1200    0.0000 C   0  0  0  0  0  0  0  0  0  0  0  0
    7.2690    2.6200    0.0000 C   0  0  0  0  0  0  0  0  0  0  0  0
    9.0010    7.6200    0.0000 C   0  0  0  0  0  0  0  0  0  0  0  0
    6.4030    4.1200    0.0000 C   0  0  0  0  0  0  0  0  0  0  0  0
    7.2690    7.6200    0.0000 C   0  0  0  0  0  0  0  0  0  0  0  0
    8.1350    4.1200    0.0000 C   0  0  0  0  0  0  0  0  0  0  0  0
    9.8671    6.1200    0.0000 C   0  0  0  0  0  0  0  0  0  0  0  0
    5.5369    5.6200    0.0000 C   0  0  0  0  0  0  0  0  0  0  0  0
    9.0010    8.6200    0.0000 C   0  0  0  0  0  0  0  0  0  0  0  0
    6.4030    3.1200    0.0000 C   0  0  0  0  0  0  0  0  0  0  0  0
    7.2690    8.6200    0.0000 C   0  0  0  0  0  0  0  0  0  0  0  0
    8.1350    3.1200    0.0000 C   0  0  0  0  0  0  0  0  0  0  0  0
    7.2690    0.6200    0.0000 C   0  0  0  0  0  0  0  0  0  0  0  0
    6.2690    1.6200    0.0000 C   0  0  0  0  0  0  0  0  0  0  0  0
    8.2690    1.6200    0.0000 C   0  0  0  0  0  0  0  0  0  0  0  0
    8.1350   11.1200    0.0000 C   0  0  0  0  0  0  0  0  0  0  0  0
    9.1350   10.1200    0.0000 C   0  0  0  0  0  0  0  0  0  0  0  0
    7.1350   10.1200    0.0000 C   0  0  0  0  0  0  0  0  0  0  0  0
    8.1350    5.5000    0.0000 H   0  0  0  0  0  0  0  0  0  0  0  0
    6.7320    5.3100    0.0000 H   0  0  0  0  0  0  0  0  0  0  0  0
    6.8015    6.5950    0.0000 H   0  0  0  0  0  0  0  0  0  0  0  0
    6.0044    6.5950    0.0000 H   0  0  0  0  0  0  0  0  0  0  0  0
    8.6025    5.1450    0.0000 H   0  0  0  0  0  0  0  0  0  0  0  0
    9.3996    5.1450    0.0000 H   0  0  0  0  0  0  0  0  0  0  0  0
    9.5380    7.3100    0.0000 H   0  0  0  0  0  0  0  0  0  0  0  0
    5.8660    4.4300    0.0000 H   0  0  0  0  0  0  0  0  0  0  0  0
    6.7320    7.3100    0.0000 H   0  0  0  0  0  0  0  0  0  0  0  0
    8.6720    4.4300    0.0000 H   0  0  0  0  0  0  0  0  0  0  0  0
    5.2269    6.1569    0.0000 H   0  0  0  0  0  0  0  0  0  0  0  0
    5.0000    5.3100    0.0000 H   0  0  0  0  0  0  0  0  0  0  0  0
   10.1771    5.5831    0.0000 H   0  0  0  0  0  0  0  0  0  0  0  0
   10.4040    6.4300    0.0000 H   0  0  0  0  0  0  0  0  0  0  0  0
    9.5571    6.6569    0.0000 H   0  0  0  0  0  0  0  0  0  0  0  0
    5.8469    5.0831    0.0000 H   0  0  0  0  0  0  0  0  0  0  0  0
    5.8660    2.8100    0.0000 H   0  0  0  0  0  0  0  0  0  0  0  0
    9.5380    8.9300    0.0000 H   0  0  0  0  0  0  0  0  0  0  0  0
    8.6720    2.8100    0.0000 H   0  0  0  0  0  0  0  0  0  0  0  0
    6.7320    8.9300    0.0000 H   0  0  0  0  0  0  0  0  0  0  0  0
    7.1350   10.7400    0.0000 H   0  0  0  0  0  0  0  0  0  0  0  0
    6.5150   10.1200    0.0000 H   0  0  0  0  0  0  0  0  0  0  0  0
    7.1350    9.5000    0.0000 H   0  0  0  0  0  0  0  0  0  0  0  0
    9.1350    9.5000    0.0000 H   0  0  0  0  0  0  0  0  0  0  0  0
    9.7550   10.1200    0.0000 H   0  0  0  0  0  0  0  0  0  0  0  0
    9.1350   10.7400    0.0000 H   0  0  0  0  0  0  0  0  0  0  0  0
    8.7550   11.1200    0.0000 H   0  0  0  0  0  0  0  0  0  0  0  0
    8.1350   11.7400    0.0000 H   0  0  0  0  0  0  0  0  0  0  0  0
    7.5150   11.1200    0.0000 H   0  0  0  0  0  0  0  0  0  0  0  0
    8.2690    1.0000    0.0000 H   0  0  0  0  0  0  0  0  0  0  0  0
    8.8890    1.6200    0.0000 H   0  0  0  0  0  0  0  0  0  0  0  0
    8.2690    2.2400    0.0000 H   0  0  0  0  0  0  0  0  0  0  0  0
    6.2690    2.2400    0.0000 H   0  0  0  0  0  0  0  0  0  0  0  0
    5.6490    1.6200    0.0000 H   0  0  0  0  0  0  0  0  0  0  0  0
    6.2690    1.0000    0.0000 H   0  0  0  0  0  0  0  0  0  0  0  0
    6.6490    0.6200    0.0000 H   0  0  0  0  0  0  0  0  0  0  0  0
    7.2690    0.0000    0.0000 H   0  0  0  0  0  0  0  0  0  0  0  0
    7.8890    0.6200    0.0000 H   0  0  0  0  0  0  0  0  0  0  0  0
  3 11  1  0  0  0  0
  3 26  1  0  0  0  0
  3 27  1  0  0  0  0
  3 28  1  0  0  0  0
  4 12  1  0  0  0  0
  4 23  1  0  0  0  0
  4 24  1  0  0  0  0
  4 25  1  0  0  0  0
  5  6  1  0  0  0  0
  5  7  1  0  0  0  0
  5 10  1  0  0  0  0
  5 29  1  0  0  0  0
  6  8  1  0  0  0  0
  6  9  1  0  0  0  0
  6 30  1  0  0  0  0
  7 17  1  0  0  0  0
  7 33  1  0  0  0  0
  7 34  1  0  0  0  0
  8 18  1  0  0  0  0
  8 31  1  0  0  0  0
  8 32  1  0  0  0  0
  9 14  2  0  0  0  0
  9 16  1  0  0  0  0
 10 13  2  0  0  0  0
 10 15  1  0  0  0  0
 11 19  2  0  0  0  0
 11 21  1  0  0  0  0
 12 20  2  0  0  0  0
 12 22  1  0  0  0  0
 13 19  1  0  0  0  0
 13 35  1  0  0  0  0
 14 20  1  0  0  0  0
 14 36  1  0  0  0  0
 15 21  2  0  0  0  0
 15 37  1  0  0  0  0
 16 22  2  0  0  0  0
 16 38  1  0  0  0  0
 17 41  1  0  0  0  0
 17 42  1  0  0  0  0
 17 43  1  0  0  0  0
 18 39  1  0  0  0  0
 18 40  1  0  0  0  0
 18 44  1  0  0  0  0
 19 46  1  0  0  0  0
 20 45  1  0  0  0  0
 21 48  1  0  0  0  0
 22 47  1  0  0  0  0
 23 64  1  0  0  0  0
 23 65  1  0  0  0  0
 23 66  1  0  0  0  0
 24 61  1  0  0  0  0
 24 62  1  0  0  0  0
 24 63  1  0  0  0  0
 25 58  1  0  0  0  0
 25 59  1  0  0  0  0
 25 60  1  0  0  0  0
 26 55  1  0  0  0  0
 26 56  1  0  0  0  0
 26 57  1  0  0  0  0
 27 52  1  0  0  0  0
 27 53  1  0  0  0  0
 27 54  1  0  0  0  0
 28 49  1  0  0  0  0
 28 50  1  0  0  0  0
 28 51  1  0  0  0  0
M  CHG  4   1  -1   2  -1   3   1   4   1
M  END
> <PUBCHEM_COMPOUND_CID>
11792

> <PUBCHEM_COMPOUND_CANONICALIZED>
1

> <PUBCHEM_CACTVS_COMPLEXITY>
361

> <PUBCHEM_CACTVS_HBOND_ACCEPTOR>
2

> <PUBCHEM_CACTVS_HBOND_DONOR>
0

> <PUBCHEM_CACTVS_ROTATABLE_BOND>
7

> <PUBCHEM_CACTVS_SUBSKEYS>
AAADcfB7AAAAAwAAAAAAAAAAAAAAAAAAAAAwYAAAAAAAAAABQAAAHAAAAAAADQiBGAQywIMAAACAAiRCQACCAAAhAgAIiAAIZIgIICLAkZGEIAhggABIyAcQgMAOiAAAAAAAAAAQAAAAAAAAAAAAAAAAAA==

> <PUBCHEM_IUPAC_OPENEYE_NAME>
[4-[1-ethyl-2-[4-(trimethylammonio)phenyl]butyl]phenyl]-trimethyl-ammonium diiodide

> <PUBCHEM_IUPAC_CAS_NAME>
trimethyl-[4-[4-[4-(trimethylammonio)phenyl]hexan-3-yl]phenyl]ammonium diiodide

> <PUBCHEM_IUPAC_NAME>
trimethyl-[4-[4-[4-(trimethylazaniumyl)phenyl]hexan-3-yl]phenyl]azanium diiodide

> <PUBCHEM_IUPAC_SYSTEMATIC_NAME>
trimethyl-[4-[4-[4-(trimethylazaniumyl)phenyl]hexan-3-yl]phenyl]azanium diiodide

> <PUBCHEM_IUPAC_TRADITIONAL_NAME>
[4-[1-ethyl-2-[4-(trimethylammonio)phenyl]butyl]phenyl]-trimethyl-ammonium diiodide

> <PUBCHEM_IUPAC_INCHI>
InChI=1S/C24H38N2.2HI/c1-9-23(19-11-15-21(16-12-19)25(3,4)5)24(10-2)20-13-17-22(18-14-20)26(6,7)8;;/h11-18,23-24H,9-10H2,1-8H3;2*1H/q+2;;/p-2

> <PUBCHEM_IUPAC_INCHIKEY>
CLMIEWJBSVHIJU-UHFFFAOYSA-L

> <PUBCHEM_EXACT_MASS>
608.112445

> <PUBCHEM_MOLECULAR_FORMULA>
C24H38I2N2

> <PUBCHEM_MOLECULAR_WEIGHT>
608.38086

> <PUBCHEM_OPENEYE_CAN_SMILES>
CCC(C1=CC=C(C=C1)[N+](C)(C)C)C(CC)C2=CC=C(C=C2)[N+](C)(C)C.[I-].[I-]

> <PUBCHEM_OPENEYE_ISO_SMILES>
CCC(C1=CC=C(C=C1)[N+](C)(C)C)C(CC)C2=CC=C(C=C2)[N+](C)(C)C.[I-].[I-]

> <PUBCHEM_CACTVS_TPSA>
0

> <PUBCHEM_MONOISOTOPIC_WEIGHT>
608.112445

> <PUBCHEM_TOTAL_CHARGE>
0

> <PUBCHEM_HEAVY_ATOM_COUNT>
28

> <PUBCHEM_ATOM_DEF_STEREO_COUNT>
0

> <PUBCHEM_ATOM_UDEF_STEREO_COUNT>
2

> <PUBCHEM_BOND_DEF_STEREO_COUNT>
0

> <PUBCHEM_BOND_UDEF_STEREO_COUNT>
0

> <PUBCHEM_ISOTOPIC_ATOM_COUNT>
0

> <PUBCHEM_COMPONENT_COUNT>
3

> <PUBCHEM_CACTVS_TAUTO_COUNT>
1

> <PUBCHEM_COORDINATE_TYPE>
1
5
255

> <PUBCHEM_BONDANNOTATIONS>
10  13  8
10  15  8
11  19  8
11  21  8
12  20  8
12  22  8
13  19  8
14  20  8
15  21  8
16  22  8
5  7  3
6  8  3
9  14  8
9  16  8

$$$$

