12112
  -OEChem-06261206332D

 24 25  0     0  0  0  0  0  0999 V2000
    3.7320   -2.0000    0.0000 N   0  0  0  0  0  0  0  0  0  0  0  0
    2.8660    0.5000    0.0000 C   0  0  0  0  0  0  0  0  0  0  0  0
    3.7320    1.0000    0.0000 C   0  0  0  0  0  0  0  0  0  0  0  0
    2.8660   -0.5000    0.0000 C   0  0  0  0  0  0  0  0  0  0  0  0
    4.5981    0.5000    0.0000 C   0  0  0  0  0  0  0  0  0  0  0  0
    3.7320    2.0000    0.0000 C   0  0  0  0  0  0  0  0  0  0  0  0
    2.0000   -1.0000    0.0000 C   0  0  0  0  0  0  0  0  0  0  0  0
    3.7320   -1.0000    0.0000 C   0  0  0  0  0  0  0  0  0  0  0  0
    5.4641    1.0000    0.0000 C   0  0  0  0  0  0  0  0  0  0  0  0
    4.5981    2.5000    0.0000 C   0  0  0  0  0  0  0  0  0  0  0  0
    5.4641    2.0000    0.0000 C   0  0  0  0  0  0  0  0  0  0  0  0
    2.0000   -2.0000    0.0000 C   0  0  0  0  0  0  0  0  0  0  0  0
    2.8660   -2.5000    0.0000 C   0  0  0  0  0  0  0  0  0  0  0  0
    2.6540    1.0826    0.0000 H   0  0  0  0  0  0  0  0  0  0  0  0
    2.2554    0.3923    0.0000 H   0  0  0  0  0  0  0  0  0  0  0  0
    4.5981   -0.1200    0.0000 H   0  0  0  0  0  0  0  0  0  0  0  0
    3.1951    2.3100    0.0000 H   0  0  0  0  0  0  0  0  0  0  0  0
    1.4631   -0.6900    0.0000 H   0  0  0  0  0  0  0  0  0  0  0  0
    4.2690   -0.6900    0.0000 H   0  0  0  0  0  0  0  0  0  0  0  0
    6.0010    0.6900    0.0000 H   0  0  0  0  0  0  0  0  0  0  0  0
    4.5981    3.1200    0.0000 H   0  0  0  0  0  0  0  0  0  0  0  0
    6.0010    2.3100    0.0000 H   0  0  0  0  0  0  0  0  0  0  0  0
    1.4631   -2.3100    0.0000 H   0  0  0  0  0  0  0  0  0  0  0  0
    2.8660   -3.1200    0.0000 H   0  0  0  0  0  0  0  0  0  0  0  0
  1  8  1  0  0  0  0
  1 13  2  0  0  0  0
  2  3  1  0  0  0  0
  2  4  1  0  0  0  0
  2 14  1  0  0  0  0
  2 15  1  0  0  0  0
  3  5  2  0  0  0  0
  3  6  1  0  0  0  0
  4  7  1  0  0  0  0
  4  8  2  0  0  0  0
  5  9  1  0  0  0  0
  5 16  1  0  0  0  0
  6 10  2  0  0  0  0
  6 17  1  0  0  0  0
  7 12  2  0  0  0  0
  7 18  1  0  0  0  0
  8 19  1  0  0  0  0
  9 11  2  0  0  0  0
  9 20  1  0  0  0  0
 10 11  1  0  0  0  0
 10 21  1  0  0  0  0
 11 22  1  0  0  0  0
 12 13  1  0  0  0  0
 12 23  1  0  0  0  0
 13 24  1  0  0  0  0
M  END
> <PUBCHEM_COMPOUND_CID>
12112

> <PUBCHEM_COMPOUND_CANONICALIZED>
1

> <PUBCHEM_CACTVS_COMPLEXITY>
138

> <PUBCHEM_CACTVS_HBOND_ACCEPTOR>
1

> <PUBCHEM_CACTVS_HBOND_DONOR>
0

> <PUBCHEM_CACTVS_ROTATABLE_BOND>
2

> <PUBCHEM_CACTVS_SUBSKEYS>
AAADccByAAAAAAAAAAAAAAAAAAAAAAAAAAA8QAAAAAAAAAABwAAAHAAAAAAADADBGgQ8gJIIEACgAjBnRACCgCAxAiAI2CA4ZJgIIOLAkZGEIAhggADIyAcQgMAOAAAAAAAAAAAAAAAAAAAAAAAAAAAAAA==

> <PUBCHEM_IUPAC_OPENEYE_NAME>
3-benzylpyridine

> <PUBCHEM_IUPAC_CAS_NAME>
3-(phenylmethyl)pyridine

> <PUBCHEM_IUPAC_NAME>
3-benzylpyridine

> <PUBCHEM_IUPAC_SYSTEMATIC_NAME>
3-(phenylmethyl)pyridine

> <PUBCHEM_IUPAC_TRADITIONAL_NAME>
3-benzylpyridine

> <PUBCHEM_IUPAC_INCHI>
InChI=1S/C12H11N/c1-2-5-11(6-3-1)9-12-7-4-8-13-10-12/h1-8,10H,9H2

> <PUBCHEM_IUPAC_INCHIKEY>
UUCLVSDUMKMBSM-UHFFFAOYSA-N

> <PUBCHEM_XLOGP3>
2.8

> <PUBCHEM_EXACT_MASS>
169.089149

> <PUBCHEM_MOLECULAR_FORMULA>
C12H11N

> <PUBCHEM_MOLECULAR_WEIGHT>
169.22244

> <PUBCHEM_OPENEYE_CAN_SMILES>
C1=CC=C(C=C1)CC2=CN=CC=C2

> <PUBCHEM_OPENEYE_ISO_SMILES>
C1=CC=C(C=C1)CC2=CN=CC=C2

> <PUBCHEM_CACTVS_TPSA>
12.9

> <PUBCHEM_MONOISOTOPIC_WEIGHT>
169.089149

> <PUBCHEM_TOTAL_CHARGE>
0

> <PUBCHEM_HEAVY_ATOM_COUNT>
13

> <PUBCHEM_ATOM_DEF_STEREO_COUNT>
0

> <PUBCHEM_ATOM_UDEF_STEREO_COUNT>
0

> <PUBCHEM_BOND_DEF_STEREO_COUNT>
0

> <PUBCHEM_BOND_UDEF_STEREO_COUNT>
0

> <PUBCHEM_ISOTOPIC_ATOM_COUNT>
0

> <PUBCHEM_COMPONENT_COUNT>
1

> <PUBCHEM_CACTVS_TAUTO_COUNT>
1

> <PUBCHEM_COORDINATE_TYPE>
1
5
255

> <PUBCHEM_BONDANNOTATIONS>
1  13  8
1  8  8
10  11  8
12  13  8
3  5  8
3  6  8
4  7  8
4  8  8
5  9  8
6  10  8
7  12  8
9  11  8

$$$$

