47205553
  -OEChem-06241222593D

 41 41  0     0  0  0  0  0  0999 V2000
    3.7320    0.6325   -0.0325 O   0  0  0  0  0  0  0  0  0  0  0  0
   -1.0173    3.2026   -1.3206 O   0  0  0  0  0  0  0  0  0  0  0  0
   -3.3099   -2.9720    0.0447 O   0  0  0  0  0  0  0  0  0  0  0  0
   -3.3061    2.0539   -0.1027 O   0  0  0  0  0  0  0  0  0  0  0  0
   -0.1248    2.3655    0.6845 N   0  0  0  0  0  0  0  0  0  0  0  0
   -1.8112    0.2179   -0.1856 N   0  0  0  0  0  0  0  0  0  0  0  0
   -2.1825   -2.1696   -0.0819 N   0  0  0  0  0  0  0  0  0  0  0  0
    2.2559    2.5155    0.0739 C   0  0  0  0  0  0  0  0  0  0  0  0
    5.3171   -1.1401   -0.3130 C   0  0  0  0  0  0  0  0  0  0  0  0
    2.6052    1.1529    0.6601 C   0  0  0  0  0  0  0  0  0  0  0  0
    4.1098   -0.6422    0.4689 C   0  0  0  0  0  0  0  0  0  0  0  0
    1.0653    3.1675    0.7646 C   0  0  0  0  0  0  0  0  0  0  0  0
    5.7687   -2.5175    0.1643 C   0  0  0  0  0  0  0  0  0  0  0  0
    6.9475   -3.0297   -0.6476 C   0  0  0  0  0  0  0  0  0  0  0  0
   -1.0366    2.4678   -0.3462 C   0  0  0  0  0  0  0  0  0  0  0  0
   -2.2034    1.5397   -0.1884 C   0  0  0  0  0  0  0  0  0  0  0  0
   -2.6474   -0.9171   -0.0760 C   0  0  0  0  0  0  0  0  0  0  0  0
   -4.0464   -0.8676    0.0504 C   0  0  0  0  0  0  0  0  0  0  0  0
   -4.4136   -2.1853    0.1226 C   0  0  0  0  0  0  0  0  0  0  0  0
   -5.7024   -2.8748    0.2605 C   0  0  0  0  0  0  0  0  0  0  0  0
    3.1284    3.1765    0.1443 H   0  0  0  0  0  0  0  0  0  0  0  0
    2.0535    2.4008   -0.9987 H   0  0  0  0  0  0  0  0  0  0  0  0
    5.0679   -1.1716   -1.3812 H   0  0  0  0  0  0  0  0  0  0  0  0
    6.1368   -0.4171   -0.2180 H   0  0  0  0  0  0  0  0  0  0  0  0
    2.8433    1.2535    1.7255 H   0  0  0  0  0  0  0  0  0  0  0  0
    1.7645    0.4588    0.5491 H   0  0  0  0  0  0  0  0  0  0  0  0
    3.2741   -1.3428    0.3556 H   0  0  0  0  0  0  0  0  0  0  0  0
    4.3599   -0.5593    1.5331 H   0  0  0  0  0  0  0  0  0  0  0  0
    0.8674    4.1446    0.3102 H   0  0  0  0  0  0  0  0  0  0  0  0
    1.2803    3.3272    1.8265 H   0  0  0  0  0  0  0  0  0  0  0  0
    4.9405   -3.2309    0.0816 H   0  0  0  0  0  0  0  0  0  0  0  0
    6.0520   -2.4705    1.2222 H   0  0  0  0  0  0  0  0  0  0  0  0
    7.8050   -2.3545   -0.5630 H   0  0  0  0  0  0  0  0  0  0  0  0
    7.2553   -4.0165   -0.2879 H   0  0  0  0  0  0  0  0  0  0  0  0
    6.6848   -3.1210   -1.7064 H   0  0  0  0  0  0  0  0  0  0  0  0
   -0.2961    1.6958    1.4292 H   0  0  0  0  0  0  0  0  0  0  0  0
   -0.8223   -0.0026   -0.2732 H   0  0  0  0  0  0  0  0  0  0  0  0
   -4.7124   -0.0189    0.0864 H   0  0  0  0  0  0  0  0  0  0  0  0
   -5.8804   -3.5328   -0.5956 H   0  0  0  0  0  0  0  0  0  0  0  0
   -5.7184   -3.4823    1.1707 H   0  0  0  0  0  0  0  0  0  0  0  0
   -6.5292   -2.1598    0.3159 H   0  0  0  0  0  0  0  0  0  0  0  0
  1 10  1  0  0  0  0
  1 11  1  0  0  0  0
  2 15  2  0  0  0  0
  3  7  1  0  0  0  0
  3 19  1  0  0  0  0
  4 16  2  0  0  0  0
  5 12  1  0  0  0  0
  5 15  1  0  0  0  0
  5 36  1  0  0  0  0
  6 16  1  0  0  0  0
  6 17  1  0  0  0  0
  6 37  1  0  0  0  0
  7 17  2  0  0  0  0
  8 10  1  0  0  0  0
  8 12  1  0  0  0  0
  8 21  1  0  0  0  0
  8 22  1  0  0  0  0
  9 11  1  0  0  0  0
  9 13  1  0  0  0  0
  9 23  1  0  0  0  0
  9 24  1  0  0  0  0
 10 25  1  0  0  0  0
 10 26  1  0  0  0  0
 11 27  1  0  0  0  0
 11 28  1  0  0  0  0
 12 29  1  0  0  0  0
 12 30  1  0  0  0  0
 13 14  1  0  0  0  0
 13 31  1  0  0  0  0
 13 32  1  0  0  0  0
 14 33  1  0  0  0  0
 14 34  1  0  0  0  0
 14 35  1  0  0  0  0
 15 16  1  0  0  0  0
 17 18  1  0  0  0  0
 18 19  2  0  0  0  0
 18 38  1  0  0  0  0
 19 20  1  0  0  0  0
 20 39  1  0  0  0  0
 20 40  1  0  0  0  0
 20 41  1  0  0  0  0
M  END
> <PUBCHEM_COMPOUND_CID>
47205553

> <PUBCHEM_CONFORMER_RMSD>
1

> <PUBCHEM_CONFORMER_DIVERSEORDER>
1
59
80
92
63
30
8
6
103
49
90
99
27
24
51
2
101
41
44
31
87
52
97
61
81
94
38
74
75
67
79
78
72
105
86
50
36
20
85
71
32
82
26
64
48
77
40
66
25
96
93
89
9
102
39
42
76
14
23
55
45
58
10
69
46
100
56
98
106
3
43
68
53
91
13
70
104
88
4
18
83
29
37
47
33
107
34
62
11
5
12
17
22
57
84
16
65
95
35
54
7
28
15
21
73
60
19

> <PUBCHEM_MMFF94_PARTIAL_CHARGES>
19
1 -0.56
10 0.28
11 0.28
12 0.3
15 0.63
16 0.63
17 0.35
18 -0.15
19 -0.04
2 -0.57
20 0.18
3 -0.02
36 0.37
37 0.37
38 0.15
4 -0.57
5 -0.73
6 -0.49
7 -0.41

> <PUBCHEM_EFFECTIVE_ROTOR_COUNT>
11

> <PUBCHEM_PHARMACOPHORE_FEATURES>
7
1 1 acceptor
1 14 hydrophobe
1 2 acceptor
1 4 acceptor
1 5 donor
1 6 donor
5 3 7 17 18 19 rings

> <PUBCHEM_HEAVY_ATOM_COUNT>
20

> <PUBCHEM_ATOM_DEF_STEREO_COUNT>
0

> <PUBCHEM_ATOM_UDEF_STEREO_COUNT>
0

> <PUBCHEM_BOND_DEF_STEREO_COUNT>
0

> <PUBCHEM_BOND_UDEF_STEREO_COUNT>
0

> <PUBCHEM_ISOTOPIC_ATOM_COUNT>
0

> <PUBCHEM_COMPONENT_COUNT>
1

> <PUBCHEM_CACTVS_TAUTO_COUNT>
16

> <PUBCHEM_CONFORMER_ID>
02D04CB100000001

> <PUBCHEM_MMFF94_ENERGY>
13.6865

> <PUBCHEM_FEATURE_SELFOVERLAP>
35.526

> <PUBCHEM_SHAPE_FINGERPRINT>
10968037 57 18408601457075388305
11186622 123 18126288773560815994
11197282 1 18410572855971457818
12107183 9 18261659433875340241
12555020 224 18339374075035583437
12643181 29 18268154334727479290
12990986 174 18410012182619137606
13533116 47 18045782278649868395
13551218 46 18265051319914985587
13911852 28 18264211309989733335
14251731 5 18410576158642520240
14420673 8 18337386140737372667
14866123 147 18335698412232994257
15042514 8 18411136961429090361
15352361 1 18410013221742636938
16120349 21 18335691793619462169
17492 89 18410013213226620280
17859628 70 18121219770899388344
1813 80 17344362055572488253
20403669 9 18335134267724698582
20621476 30 17975410532596662550
20775530 9 18411427206581008154
21279426 13 18270696281457701357
21307412 95 18339089310034536749
21682296 61 18340484444820880827
23379529 103 18410292497796422770
23466295 7 18337387257508146848
23559900 14 18338245881378717009
3421961 26 18191871128204070832
345986 75 17604980434437784417
44062 13 18340488979746571860
484985 159 18191019212697994081
5365585 94 18272364239906467466
56633871 153 18336255834204413259
7062679 13 18410856568789081810
88748 71 18411135805718481680

> <PUBCHEM_SHAPE_MULTIPOLES>
373.17
14.55
5.15
0.79
16.86
0.64
-0.05
-21.27
-0.72
-0.47
-0.21
0.21
0.32
1.45

> <PUBCHEM_SHAPE_SELFOVERLAP>
735.908

> <PUBCHEM_SHAPE_VOLUME>
221.6

> <PUBCHEM_COORDINATE_TYPE>
2
5
10

$$$$

