4821
  -OEChem-06261200212D

 97100  0     1  0  0  0  0  0999 V2000
    9.5000   -1.3557    0.0000 O   0  0  0  0  0  0  0  0  0  0  0  0
    7.5000   -5.5524    0.0000 O   0  0  0  0  0  0  0  0  0  0  0  0
    8.5000    1.3763    0.0000 O   0  0  0  0  0  0  0  0  0  0  0  0
   11.2321   -2.3557    0.0000 O   0  0  0  0  0  0  0  0  0  0  0  0
    7.1340    2.7424    0.0000 O   0  0  0  0  0  0  0  0  0  0  0  0
   12.0981    0.1443    0.0000 O   0  0  0  0  0  0  0  0  0  0  0  0
   10.0000   -4.6858    0.0000 O   0  0  0  0  0  0  0  0  0  0  0  0
    9.7320    2.2424    0.0000 O   0  0  0  0  0  0  0  0  0  0  0  0
    8.0000    5.2424    0.0000 O   0  0  0  0  0  0  0  0  0  0  0  0
   11.2321    1.6443    0.0000 O   0  0  0  0  0  0  0  0  0  0  0  0
    9.5000    1.6443    0.0000 O   0  0  0  0  0  0  0  0  0  0  0  0
    4.0000   -2.9538    0.0000 O   0  0  0  0  0  0  0  0  0  0  0  0
    5.5000   -2.0878    0.0000 O   0  0  0  0  0  0  0  0  0  0  0  0
    9.7320    4.2424    0.0000 N   0  0  0  0  0  0  0  0  0  0  0  0
   10.3660   -1.8557    0.0000 C   0  0  3  0  0  0  0  0  0  0  0  0
    9.5000   -0.3557    0.0000 C   0  0  3  0  0  0  0  0  0  0  0  0
   10.3660    0.1443    0.0000 C   0  0  3  0  0  0  0  0  0  0  0  0
   11.2321   -1.3557    0.0000 C   0  0  0  0  0  0  0  0  0  0  0  0
   11.2321   -0.3557    0.0000 C   0  0  3  0  0  0  0  0  0  0  0  0
    9.8660   -2.7217    0.0000 C   0  0  0  0  0  0  0  0  0  0  0  0
    8.5000   -0.3557    0.0000 C   0  0  0  0  0  0  0  0  0  0  0  0
    9.5000   -3.8198    0.0000 C   0  0  3  0  0  0  0  0  0  0  0  0
    8.0000   -4.6858    0.0000 C   0  0  3  0  0  0  0  0  0  0  0  0
    8.5000   -3.8198    0.0000 C   0  0  0  0  0  0  0  0  0  0  0  0
    8.0000    2.2424    0.0000 C   0  0  3  0  0  0  0  0  0  0  0  0
    8.0000    0.5103    0.0000 C   0  0  3  0  0  0  0  0  0  0  0  0
    7.0000   -4.6858    0.0000 C   0  0  3  0  0  0  0  0  0  0  0  0
    8.8660    2.7424    0.0000 C   0  0  3  0  0  0  0  0  0  0  0  0
    8.8660    3.7424    0.0000 C   0  0  3  0  0  0  0  0  0  0  0  0
    8.0000    4.2424    0.0000 C   0  0  3  0  0  0  0  0  0  0  0  0
    7.1340    3.7424    0.0000 C   0  0  3  0  0  0  0  0  0  0  0  0
   10.3660    1.1443    0.0000 C   0  0  0  0  0  0  0  0  0  0  0  0
    7.5000    1.3763    0.0000 C   0  0  0  0  0  0  0  0  0  0  0  0
    7.0000    0.5103    0.0000 C   0  0  0  0  0  0  0  0  0  0  0  0
    6.5000   -3.8198    0.0000 C   0  0  0  0  0  0  0  0  0  0  0  0
    6.2680    4.2424    0.0000 C   0  0  0  0  0  0  0  0  0  0  0  0
    6.5000    1.3763    0.0000 C   0  0  0  0  0  0  0  0  0  0  0  0
    5.5000   -3.8198    0.0000 C   0  0  0  0  0  0  0  0  0  0  0  0
    5.5000    1.3763    0.0000 C   0  0  0  0  0  0  0  0  0  0  0  0
    5.0000   -2.9538    0.0000 C   0  0  0  0  0  0  0  0  0  0  0  0
    5.0000    0.5103    0.0000 C   0  0  0  0  0  0  0  0  0  0  0  0
    3.5000   -2.0878    0.0000 C   0  0  3  0  0  0  0  0  0  0  0  0
    4.0000    0.5103    0.0000 C   0  0  0  0  0  0  0  0  0  0  0  0
    2.5000   -2.0878    0.0000 C   0  0  0  0  0  0  0  0  0  0  0  0
    4.0000   -1.2217    0.0000 C   0  0  0  0  0  0  0  0  0  0  0  0
    3.5000   -0.3557    0.0000 C   0  0  0  0  0  0  0  0  0  0  0  0
    2.0000   -1.2217    0.0000 C   0  0  0  0  0  0  0  0  0  0  0  0
    2.5000   -0.3557    0.0000 C   0  0  0  0  0  0  0  0  0  0  0  0
    9.2800    0.4653    0.0000 H   0  0  0  0  0  0  0  0  0  0  0  0
    9.6299    0.5693    0.0000 H   0  0  0  0  0  0  0  0  0  0  0  0
   11.4441   -1.9383    0.0000 H   0  0  0  0  0  0  0  0  0  0  0  0
   11.8426   -1.2480    0.0000 H   0  0  0  0  0  0  0  0  0  0  0  0
   11.9682   -0.7807    0.0000 H   0  0  0  0  0  0  0  0  0  0  0  0
    9.5206   -2.2069    0.0000 H   0  0  0  0  0  0  0  0  0  0  0  0
   10.4315   -2.9761    0.0000 H   0  0  0  0  0  0  0  0  0  0  0  0
    7.9174   -0.5678    0.0000 H   0  0  0  0  0  0  0  0  0  0  0  0
    8.6077   -0.9663    0.0000 H   0  0  0  0  0  0  0  0  0  0  0  0
   10.3457   -3.7342    0.0000 H   0  0  0  0  0  0  0  0  0  0  0  0
    8.7362   -5.1107    0.0000 H   0  0  0  0  0  0  0  0  0  0  0  0
    8.6077   -3.2092    0.0000 H   0  0  0  0  0  0  0  0  0  0  0  0
    7.9174   -3.6078    0.0000 H   0  0  0  0  0  0  0  0  0  0  0  0
    8.8500    0.5103    0.0000 H   0  0  0  0  0  0  0  0  0  0  0  0
    6.2638   -5.1107    0.0000 H   0  0  0  0  0  0  0  0  0  0  0  0
    8.8660    1.8924    0.0000 H   0  0  0  0  0  0  0  0  0  0  0  0
    8.8660    4.5924    0.0000 H   0  0  0  0  0  0  0  0  0  0  0  0
    8.7361    4.6674    0.0000 H   0  0  0  0  0  0  0  0  0  0  0  0
    6.3978    3.3174    0.0000 H   0  0  0  0  0  0  0  0  0  0  0  0
   11.2321   -2.9757    0.0000 H   0  0  0  0  0  0  0  0  0  0  0  0
    6.9631    1.6863    0.0000 H   0  0  0  0  0  0  0  0  0  0  0  0
    7.1900    0.8394    0.0000 H   0  0  0  0  0  0  0  0  0  0  0  0
    8.0369    1.0663    0.0000 H   0  0  0  0  0  0  0  0  0  0  0  0
   12.6350   -0.1657    0.0000 H   0  0  0  0  0  0  0  0  0  0  0  0
    6.6900   -0.0266    0.0000 H   0  0  0  0  0  0  0  0  0  0  0  0
    6.8100   -3.2829    0.0000 H   0  0  0  0  0  0  0  0  0  0  0  0
   10.6200   -4.6858    0.0000 H   0  0  0  0  0  0  0  0  0  0  0  0
    6.5780    4.7793    0.0000 H   0  0  0  0  0  0  0  0  0  0  0  0
    5.7310    4.5524    0.0000 H   0  0  0  0  0  0  0  0  0  0  0  0
    5.9580    3.7054    0.0000 H   0  0  0  0  0  0  0  0  0  0  0  0
    9.7320    4.8624    0.0000 H   0  0  0  0  0  0  0  0  0  0  0  0
   10.2690    3.9324    0.0000 H   0  0  0  0  0  0  0  0  0  0  0  0
   10.2690    2.5524    0.0000 H   0  0  0  0  0  0  0  0  0  0  0  0
    7.4631    5.5524    0.0000 H   0  0  0  0  0  0  0  0  0  0  0  0
   11.2321    2.2643    0.0000 H   0  0  0  0  0  0  0  0  0  0  0  0
    6.8100    1.9133    0.0000 H   0  0  0  0  0  0  0  0  0  0  0  0
    5.1900   -4.3567    0.0000 H   0  0  0  0  0  0  0  0  0  0  0  0
    5.1900    1.9133    0.0000 H   0  0  0  0  0  0  0  0  0  0  0  0
    5.3100   -0.0266    0.0000 H   0  0  0  0  0  0  0  0  0  0  0  0
    4.3500   -2.0878    0.0000 H   0  0  0  0  0  0  0  0  0  0  0  0
    3.6900    1.0473    0.0000 H   0  0  0  0  0  0  0  0  0  0  0  0
    1.9174   -2.2998    0.0000 H   0  0  0  0  0  0  0  0  0  0  0  0
    2.6077   -2.6983    0.0000 H   0  0  0  0  0  0  0  0  0  0  0  0
    4.5369   -1.5317    0.0000 H   0  0  0  0  0  0  0  0  0  0  0  0
    4.3100   -0.6848    0.0000 H   0  0  0  0  0  0  0  0  0  0  0  0
    3.4631   -0.9117    0.0000 H   0  0  0  0  0  0  0  0  0  0  0  0
    3.8100   -0.8926    0.0000 H   0  0  0  0  0  0  0  0  0  0  0  0
    1.3800   -1.2217    0.0000 H   0  0  0  0  0  0  0  0  0  0  0  0
    2.1900    0.1812    0.0000 H   0  0  0  0  0  0  0  0  0  0  0  0
  1 15  1  0  0  0  0
  1 16  1  0  0  0  0
  2 23  1  0  0  0  0
  2 27  1  0  0  0  0
  3 25  1  0  0  0  0
  3 26  1  0  0  0  0
  4 15  1  0  0  0  0
  4 68  1  0  0  0  0
  5 25  1  0  0  0  0
  5 31  1  0  0  0  0
  6 19  1  0  0  0  0
  6 72  1  0  0  0  0
  7 22  1  0  0  0  0
  7 75  1  0  0  0  0
  8 28  1  0  0  0  0
  8 81  1  0  0  0  0
  9 30  1  0  0  0  0
  9 82  1  0  0  0  0
 10 32  1  0  0  0  0
 10 83  1  0  0  0  0
 11 32  2  0  0  0  0
 12 40  1  0  0  0  0
 12 42  1  0  0  0  0
 13 40  2  0  0  0  0
 14 29  1  0  0  0  0
 14 79  1  0  0  0  0
 14 80  1  0  0  0  0
 15 18  1  0  0  0  0
 15 20  1  0  0  0  0
 16 17  1  0  0  0  0
 16 21  1  0  0  0  0
 16 49  1  0  0  0  0
 17 19  1  0  0  0  0
 17 32  1  0  0  0  0
 17 50  1  0  0  0  0
 18 19  1  0  0  0  0
 18 51  1  0  0  0  0
 18 52  1  0  0  0  0
 19 53  1  0  0  0  0
 20 22  1  0  0  0  0
 20 54  1  0  0  0  0
 20 55  1  0  0  0  0
 21 26  1  0  0  0  0
 21 56  1  0  0  0  0
 21 57  1  0  0  0  0
 22 24  1  0  0  0  0
 22 58  1  0  0  0  0
 23 24  1  0  0  0  0
 23 27  1  0  0  0  0
 23 59  1  0  0  0  0
 24 60  1  0  0  0  0
 24 61  1  0  0  0  0
 25 28  1  0  0  0  0
 25 33  1  0  0  0  0
 26 34  1  0  0  0  0
 26 62  1  0  0  0  0
 27 35  1  0  0  0  0
 27 63  1  0  0  0  0
 28 29  1  0  0  0  0
 28 64  1  0  0  0  0
 29 30  1  0  0  0  0
 29 65  1  0  0  0  0
 30 31  1  0  0  0  0
 30 66  1  0  0  0  0
 31 36  1  0  0  0  0
 31 67  1  0  0  0  0
 33 69  1  0  0  0  0
 33 70  1  0  0  0  0
 33 71  1  0  0  0  0
 34 37  2  3  0  0  0
 34 73  1  0  0  0  0
 35 38  2  3  0  0  0
 35 74  1  0  0  0  0
 36 76  1  0  0  0  0
 36 77  1  0  0  0  0
 36 78  1  0  0  0  0
 37 39  1  0  0  0  0
 37 84  1  0  0  0  0
 38 40  1  0  0  0  0
 38 85  1  0  0  0  0
 39 41  2  3  0  0  0
 39 86  1  0  0  0  0
 41 43  1  0  0  0  0
 41 87  1  0  0  0  0
 42 44  1  0  0  0  0
 42 45  1  0  0  0  0
 42 88  1  0  0  0  0
 43 46  2  3  0  0  0
 43 89  1  0  0  0  0
 44 47  1  0  0  0  0
 44 90  1  0  0  0  0
 44 91  1  0  0  0  0
 45 92  1  0  0  0  0
 45 93  1  0  0  0  0
 45 94  1  0  0  0  0
 46 48  1  0  0  0  0
 46 95  1  0  0  0  0
 47 48  2  3  0  0  0
 47 96  1  0  0  0  0
 48 97  1  0  0  0  0
M  END
> <PUBCHEM_COMPOUND_CID>
4821

> <PUBCHEM_COMPOUND_CANONICALIZED>
1

> <PUBCHEM_CACTVS_COMPLEXITY>
1270

> <PUBCHEM_CACTVS_HBOND_ACCEPTOR>
14

> <PUBCHEM_CACTVS_HBOND_DONOR>
7

> <PUBCHEM_CACTVS_ROTATABLE_BOND>
3

> <PUBCHEM_CACTVS_SUBSKEYS>
AAADcfB+PAAAAAAAAAAAAAAAEgAAAAAAAAAkSAAAAAAAAAAAAAAAHgAQCAAADTzhgAYCCABABgCIACDSCAAAAAAgAAAICIEAAEgbFBYAoQAiUAAH8AAPoYPI7OzOAAAAAAAAAAAAAAAAAAAAAAAAAAAAAA==

> <PUBCHEM_IUPAC_INCHI>
InChI=1S/C34H49NO13/c1-19-11-9-7-5-4-6-8-10-12-22(47-33(3)31(40)29(35)30(39)20(2)46-33)16-26-28(32(41)42)23(37)18-34(43,48-26)17-21(36)15-25-24(45-25)13-14-27(38)44-19/h4-10,12-14,19-26,28-31,36-37,39-40,43H,11,15-18,35H2,1-3H3,(H,41,42)

> <PUBCHEM_IUPAC_INCHIKEY>
KPSADRLKNRMXCI-UHFFFAOYSA-N

> <PUBCHEM_XLOGP3_AA>
-1.2

> <PUBCHEM_EXACT_MASS>
679.320391

> <PUBCHEM_MOLECULAR_FORMULA>
C34H49NO13

> <PUBCHEM_MOLECULAR_WEIGHT>
679.75176

> <PUBCHEM_OPENEYE_CAN_SMILES>
CC1CC=CC=CC=CC=CC(CC2C(C(CC(O2)(CC(CC3C(O3)C=CC(=O)O1)O)O)O)C(=O)O)OC4(C(C(C(C(O4)C)O)N)O)C

> <PUBCHEM_OPENEYE_ISO_SMILES>
CC1CC=CC=CC=CC=CC(CC2C(C(CC(O2)(CC(CC3C(O3)C=CC(=O)O1)O)O)O)C(=O)O)OC4(C(C(C(C(O4)C)O)N)O)C

> <PUBCHEM_CACTVS_TPSA>
231

> <PUBCHEM_MONOISOTOPIC_WEIGHT>
679.320391

> <PUBCHEM_TOTAL_CHARGE>
0

> <PUBCHEM_HEAVY_ATOM_COUNT>
48

> <PUBCHEM_ATOM_DEF_STEREO_COUNT>
0

> <PUBCHEM_ATOM_UDEF_STEREO_COUNT>
14

> <PUBCHEM_BOND_DEF_STEREO_COUNT>
0

> <PUBCHEM_BOND_UDEF_STEREO_COUNT>
5

> <PUBCHEM_ISOTOPIC_ATOM_COUNT>
0

> <PUBCHEM_COMPONENT_COUNT>
1

> <PUBCHEM_CACTVS_TAUTO_COUNT>
1

> <PUBCHEM_COORDINATE_TYPE>
1
5
255

> <PUBCHEM_BONDANNOTATIONS>
16  49  3
17  50  3
19  53  3
22  58  3
23  59  3
25  33  3
26  62  3
27  63  3
28  64  3
29  65  3
30  66  3
31  67  3
34  37  1
35  38  1
39  41  1
15  4  3
42  88  3
43  46  1
47  48  1

$$$$

