7944
  -OEChem-06261202292D

 21 20  0     1  0  0  0  0  0999 V2000
    2.0000    0.2500    0.0000 Cl  0  0  0  0  0  0  0  0  0  0  0  0
    7.1962    0.2500    0.0000 Cl  0  0  0  0  0  0  0  0  0  0  0  0
    4.5981    0.7500    0.0000 O   0  0  0  0  0  0  0  0  0  0  0  0
    3.7320    0.2500    0.0000 C   0  0  3  0  0  0  0  0  0  0  0  0
    5.4641    0.2500    0.0000 C   0  0  3  0  0  0  0  0  0  0  0  0
    2.8660    0.7500    0.0000 C   0  0  0  0  0  0  0  0  0  0  0  0
    6.3301    0.7500    0.0000 C   0  0  0  0  0  0  0  0  0  0  0  0
    5.4641   -0.7500    0.0000 C   0  0  0  0  0  0  0  0  0  0  0  0
    3.7320   -0.7500    0.0000 C   0  0  0  0  0  0  0  0  0  0  0  0
    5.4641    0.8700    0.0000 H   0  0  0  0  0  0  0  0  0  0  0  0
    3.7320    0.8700    0.0000 H   0  0  0  0  0  0  0  0  0  0  0  0
    3.2646    1.2250    0.0000 H   0  0  0  0  0  0  0  0  0  0  0  0
    2.4675    1.2250    0.0000 H   0  0  0  0  0  0  0  0  0  0  0  0
    6.7287    1.2250    0.0000 H   0  0  0  0  0  0  0  0  0  0  0  0
    5.9316    1.2250    0.0000 H   0  0  0  0  0  0  0  0  0  0  0  0
    4.8441   -0.7500    0.0000 H   0  0  0  0  0  0  0  0  0  0  0  0
    5.4641   -1.3700    0.0000 H   0  0  0  0  0  0  0  0  0  0  0  0
    6.0841   -0.7500    0.0000 H   0  0  0  0  0  0  0  0  0  0  0  0
    3.1120   -0.7500    0.0000 H   0  0  0  0  0  0  0  0  0  0  0  0
    3.7320   -1.3700    0.0000 H   0  0  0  0  0  0  0  0  0  0  0  0
    4.3520   -0.7500    0.0000 H   0  0  0  0  0  0  0  0  0  0  0  0
  1  6  1  0  0  0  0
  2  7  1  0  0  0  0
  3  4  1  0  0  0  0
  3  5  1  0  0  0  0
  4  6  1  0  0  0  0
  4  9  1  0  0  0  0
  4 11  1  0  0  0  0
  5  7  1  0  0  0  0
  5  8  1  0  0  0  0
  5 10  1  0  0  0  0
  6 12  1  0  0  0  0
  6 13  1  0  0  0  0
  7 14  1  0  0  0  0
  7 15  1  0  0  0  0
  8 16  1  0  0  0  0
  8 17  1  0  0  0  0
  8 18  1  0  0  0  0
  9 19  1  0  0  0  0
  9 20  1  0  0  0  0
  9 21  1  0  0  0  0
M  END
> <PUBCHEM_COMPOUND_CID>
7944

> <PUBCHEM_COMPOUND_CANONICALIZED>
1

> <PUBCHEM_CACTVS_COMPLEXITY>
60.1

> <PUBCHEM_CACTVS_HBOND_ACCEPTOR>
1

> <PUBCHEM_CACTVS_HBOND_DONOR>
0

> <PUBCHEM_CACTVS_ROTATABLE_BOND>
4

> <PUBCHEM_CACTVS_SUBSKEYS>
AAADccBgIAAGAAAAAAAAAAAAAAAAAAAAAAAAAAAAAAAAAAAAAAAAGgIAAAAACBeggEICAAAABAAAAAAAAAAAAAAAAAAAAAAAAwAAAAAAAAACAAAAAAAAAAAAAAAAAAAAAAAAAAAAAAAAAAAAAAAAAAAAAA==

> <PUBCHEM_IUPAC_OPENEYE_NAME>
1-chloro-2-(2-chloro-1-methyl-ethoxy)propane

> <PUBCHEM_IUPAC_CAS_NAME>
1-chloro-2-(1-chloropropan-2-yloxy)propane

> <PUBCHEM_IUPAC_NAME>
1-chloro-2-(1-chloropropan-2-yloxy)propane

> <PUBCHEM_IUPAC_SYSTEMATIC_NAME>
1-chloranyl-2-(1-chloranylpropan-2-yloxy)propane

> <PUBCHEM_IUPAC_TRADITIONAL_NAME>
1-chloro-2-(2-chloro-1-methyl-ethoxy)propane

> <PUBCHEM_IUPAC_INCHI>
InChI=1S/C6H12Cl2O/c1-5(3-7)9-6(2)4-8/h5-6H,3-4H2,1-2H3

> <PUBCHEM_IUPAC_INCHIKEY>
QCFYJCYNJLBDRT-UHFFFAOYSA-N

> <PUBCHEM_XLOGP3_AA>
2.1

> <PUBCHEM_EXACT_MASS>
170.02652

> <PUBCHEM_MOLECULAR_FORMULA>
C6H12Cl2O

> <PUBCHEM_MOLECULAR_WEIGHT>
171.06488

> <PUBCHEM_OPENEYE_CAN_SMILES>
CC(CCl)OC(C)CCl

> <PUBCHEM_OPENEYE_ISO_SMILES>
CC(CCl)OC(C)CCl

> <PUBCHEM_CACTVS_TPSA>
9.2

> <PUBCHEM_MONOISOTOPIC_WEIGHT>
170.02652

> <PUBCHEM_TOTAL_CHARGE>
0

> <PUBCHEM_HEAVY_ATOM_COUNT>
9

> <PUBCHEM_ATOM_DEF_STEREO_COUNT>
0

> <PUBCHEM_ATOM_UDEF_STEREO_COUNT>
2

> <PUBCHEM_BOND_DEF_STEREO_COUNT>
0

> <PUBCHEM_BOND_UDEF_STEREO_COUNT>
0

> <PUBCHEM_ISOTOPIC_ATOM_COUNT>
0

> <PUBCHEM_COMPONENT_COUNT>
1

> <PUBCHEM_CACTVS_TAUTO_COUNT>
1

> <PUBCHEM_COORDINATE_TYPE>
1
5
255

> <PUBCHEM_BONDANNOTATIONS>
4  9  3
5  8  3

$$$$

