583254
  -OEChem-06241222452D

 38 40  0     0  0  0  0  0  0999 V2000
    3.7320   -1.0000    0.0000 Cl  0  0  0  0  0  0  0  0  0  0  0  0
    2.0000   -4.0000    0.0000 Cl  0  0  0  0  0  0  0  0  0  0  0  0
    6.3301   -2.5000    0.0000 O   0  0  0  0  0  0  0  0  0  0  0  0
    5.4641    1.0000    0.0000 N   0  0  0  0  0  0  0  0  0  0  0  0
    5.4641   -1.0000    0.0000 N   0  0  0  0  0  0  0  0  0  0  0  0
    6.3301    0.5000    0.0000 C   0  0  0  0  0  0  0  0  0  0  0  0
    4.5981    0.5000    0.0000 C   0  0  0  0  0  0  0  0  0  0  0  0
    6.3301   -0.5000    0.0000 C   0  0  0  0  0  0  0  0  0  0  0  0
    4.5981   -0.5000    0.0000 C   0  0  0  0  0  0  0  0  0  0  0  0
    5.4641    2.0000    0.0000 C   0  0  0  0  0  0  0  0  0  0  0  0
    5.4641   -2.0000    0.0000 C   0  0  0  0  0  0  0  0  0  0  0  0
    4.5981   -2.5000    0.0000 C   0  0  0  0  0  0  0  0  0  0  0  0
    6.3301    2.5000    0.0000 C   0  0  0  0  0  0  0  0  0  0  0  0
    4.5981    2.5000    0.0000 C   0  0  0  0  0  0  0  0  0  0  0  0
    6.3301    3.5000    0.0000 C   0  0  0  0  0  0  0  0  0  0  0  0
    4.5981    3.5000    0.0000 C   0  0  0  0  0  0  0  0  0  0  0  0
    3.7320   -2.0000    0.0000 C   0  0  0  0  0  0  0  0  0  0  0  0
    4.5981   -3.5000    0.0000 C   0  0  0  0  0  0  0  0  0  0  0  0
    5.4641    4.0000    0.0000 C   0  0  0  0  0  0  0  0  0  0  0  0
    2.8660   -2.5000    0.0000 C   0  0  0  0  0  0  0  0  0  0  0  0
    3.7320   -4.0000    0.0000 C   0  0  0  0  0  0  0  0  0  0  0  0
    2.8660   -3.5000    0.0000 C   0  0  0  0  0  0  0  0  0  0  0  0
    4.3860    1.0826    0.0000 H   0  0  0  0  0  0  0  0  0  0  0  0
    3.9875    0.3923    0.0000 H   0  0  0  0  0  0  0  0  0  0  0  0
    6.9407    0.3923    0.0000 H   0  0  0  0  0  0  0  0  0  0  0  0
    6.5422    1.0826    0.0000 H   0  0  0  0  0  0  0  0  0  0  0  0
    6.5422   -1.0826    0.0000 H   0  0  0  0  0  0  0  0  0  0  0  0
    6.9407   -0.3923    0.0000 H   0  0  0  0  0  0  0  0  0  0  0  0
    3.9875   -0.3923    0.0000 H   0  0  0  0  0  0  0  0  0  0  0  0
    4.3860   -1.0826    0.0000 H   0  0  0  0  0  0  0  0  0  0  0  0
    6.8671    2.1900    0.0000 H   0  0  0  0  0  0  0  0  0  0  0  0
    4.0611    2.1900    0.0000 H   0  0  0  0  0  0  0  0  0  0  0  0
    6.8671    3.8100    0.0000 H   0  0  0  0  0  0  0  0  0  0  0  0
    4.0611    3.8100    0.0000 H   0  0  0  0  0  0  0  0  0  0  0  0
    5.1350   -3.8100    0.0000 H   0  0  0  0  0  0  0  0  0  0  0  0
    5.4641    4.6200    0.0000 H   0  0  0  0  0  0  0  0  0  0  0  0
    2.3291   -2.1900    0.0000 H   0  0  0  0  0  0  0  0  0  0  0  0
    3.7320   -4.6200    0.0000 H   0  0  0  0  0  0  0  0  0  0  0  0
  1 17  1  0  0  0  0
  2 22  1  0  0  0  0
  3 11  2  0  0  0  0
  4  6  1  0  0  0  0
  4  7  1  0  0  0  0
  4 10  1  0  0  0  0
  5  8  1  0  0  0  0
  5  9  1  0  0  0  0
  5 11  1  0  0  0  0
  6  8  1  0  0  0  0
  6 25  1  0  0  0  0
  6 26  1  0  0  0  0
  7  9  1  0  0  0  0
  7 23  1  0  0  0  0
  7 24  1  0  0  0  0
  8 27  1  0  0  0  0
  8 28  1  0  0  0  0
  9 29  1  0  0  0  0
  9 30  1  0  0  0  0
 10 13  2  0  0  0  0
 10 14  1  0  0  0  0
 11 12  1  0  0  0  0
 12 17  2  0  0  0  0
 12 18  1  0  0  0  0
 13 15  1  0  0  0  0
 13 31  1  0  0  0  0
 14 16  2  0  0  0  0
 14 32  1  0  0  0  0
 15 19  2  0  0  0  0
 15 33  1  0  0  0  0
 16 19  1  0  0  0  0
 16 34  1  0  0  0  0
 17 20  1  0  0  0  0
 18 21  2  0  0  0  0
 18 35  1  0  0  0  0
 19 36  1  0  0  0  0
 20 22  2  0  0  0  0
 20 37  1  0  0  0  0
 21 22  1  0  0  0  0
 21 38  1  0  0  0  0
M  END
> <PUBCHEM_COMPOUND_CID>
583254

> <PUBCHEM_COMPOUND_CANONICALIZED>
1

> <PUBCHEM_CACTVS_COMPLEXITY>
379

> <PUBCHEM_CACTVS_HBOND_ACCEPTOR>
2

> <PUBCHEM_CACTVS_HBOND_DONOR>
0

> <PUBCHEM_CACTVS_ROTATABLE_BOND>
2

> <PUBCHEM_CACTVS_SUBSKEYS>
AAADceB7IAAGAAAAAAAAAAAAAAAAAAAAAAA8YIAAAAAAAAABQAAAHgIAAAAADArBmCQwwIMAAACIAiVSUACCAAAlBwAIiAEIZsgIYDLBl5GUIQhghgDIzYcYiACOBAAAAACBAAAIAAAAAQIAAAAAAAAAAA==

> <PUBCHEM_IUPAC_OPENEYE_NAME>
(2,4-dichlorophenyl)-(4-phenylpiperazin-1-yl)methanone

> <PUBCHEM_IUPAC_CAS_NAME>
(2,4-dichlorophenyl)-(4-phenyl-1-piperazinyl)methanone

> <PUBCHEM_IUPAC_NAME>
(2,4-dichlorophenyl)-(4-phenylpiperazin-1-yl)methanone

> <PUBCHEM_IUPAC_SYSTEMATIC_NAME>
(2,4-dichlorophenyl)-(4-phenylpiperazin-1-yl)methanone

> <PUBCHEM_IUPAC_TRADITIONAL_NAME>
(2,4-dichlorophenyl)-(4-phenylpiperazino)methanone

> <PUBCHEM_IUPAC_INCHI>
InChI=1S/C17H16Cl2N2O/c18-13-6-7-15(16(19)12-13)17(22)21-10-8-20(9-11-21)14-4-2-1-3-5-14/h1-7,12H,8-11H2

> <PUBCHEM_IUPAC_INCHIKEY>
NVTGFULEYTWHHO-UHFFFAOYSA-N

> <PUBCHEM_XLOGP3_AA>
4.2

> <PUBCHEM_EXACT_MASS>
334.063969

> <PUBCHEM_MOLECULAR_FORMULA>
C17H16Cl2N2O

> <PUBCHEM_MOLECULAR_WEIGHT>
335.22774

> <PUBCHEM_OPENEYE_CAN_SMILES>
C1CN(CCN1C2=CC=CC=C2)C(=O)C3=C(C=C(C=C3)Cl)Cl

> <PUBCHEM_OPENEYE_ISO_SMILES>
C1CN(CCN1C2=CC=CC=C2)C(=O)C3=C(C=C(C=C3)Cl)Cl

> <PUBCHEM_CACTVS_TPSA>
23.6

> <PUBCHEM_MONOISOTOPIC_WEIGHT>
334.063969

> <PUBCHEM_TOTAL_CHARGE>
0

> <PUBCHEM_HEAVY_ATOM_COUNT>
22

> <PUBCHEM_ATOM_DEF_STEREO_COUNT>
0

> <PUBCHEM_ATOM_UDEF_STEREO_COUNT>
0

> <PUBCHEM_BOND_DEF_STEREO_COUNT>
0

> <PUBCHEM_BOND_UDEF_STEREO_COUNT>
0

> <PUBCHEM_ISOTOPIC_ATOM_COUNT>
0

> <PUBCHEM_COMPONENT_COUNT>
1

> <PUBCHEM_CACTVS_TAUTO_COUNT>
1

> <PUBCHEM_COORDINATE_TYPE>
1
5
255

> <PUBCHEM_BONDANNOTATIONS>
10  13  8
10  14  8
12  17  8
12  18  8
13  15  8
14  16  8
15  19  8
16  19  8
17  20  8
18  21  8
20  22  8
21  22  8

$$$$

