47205093
  -OEChem-06241222583D

 29 31  0     0  0  0  0  0  0999 V2000
    0.2004    1.9353   -0.0057 Cl  0  0  0  0  0  0  0  0  0  0  0  0
    1.9739   -1.9026    0.1000 S   0  0  0  0  0  0  0  0  0  0  0  0
   -1.0658   -1.9068    1.0723 O   0  0  0  0  0  0  0  0  0  0  0  0
   -1.4842   -0.8614   -0.9547 N   0  0  0  0  0  0  0  0  0  0  0  0
   -3.9201   -0.0331    0.8891 N   0  0  0  0  0  0  0  0  0  0  0  0
   -4.7701    0.9490    1.2341 N   0  0  0  0  0  0  0  0  0  0  0  0
    2.6300    0.5965    0.0042 C   0  0  0  0  0  0  0  0  0  0  0  0
    3.1918   -0.6834    0.0398 C   0  0  0  0  0  0  0  0  0  0  0  0
    0.7164   -0.7521    0.0781 C   0  0  0  0  0  0  0  0  0  0  0  0
    1.1961    0.5351    0.0272 C   0  0  0  0  0  0  0  0  0  0  0  0
   -2.8770   -1.2350   -1.0519 C   0  0  0  0  0  0  0  0  0  0  0  0
   -3.7809   -0.1935   -0.4583 C   0  0  0  0  0  0  0  0  0  0  0  0
   -0.6337   -1.2180    0.1138 C   0  0  0  0  0  0  0  0  0  0  0  0
    3.5034    1.7097   -0.0468 C   0  0  0  0  0  0  0  0  0  0  0  0
    4.5872   -0.8759    0.0255 C   0  0  0  0  0  0  0  0  0  0  0  0
    4.8880    1.5221   -0.0611 C   0  0  0  0  0  0  0  0  0  0  0  0
    5.4221    0.2419   -0.0257 C   0  0  0  0  0  0  0  0  0  0  0  0
   -4.5970    0.7489   -1.0347 C   0  0  0  0  0  0  0  0  0  0  0  0
   -5.1803    1.4232    0.0547 C   0  0  0  0  0  0  0  0  0  0  0  0
   -3.0323   -2.1967   -0.5507 H   0  0  0  0  0  0  0  0  0  0  0  0
   -3.1037   -1.3675   -2.1150 H   0  0  0  0  0  0  0  0  0  0  0  0
   -1.1025   -0.2877   -1.7017 H   0  0  0  0  0  0  0  0  0  0  0  0
    3.1095    2.7227   -0.0755 H   0  0  0  0  0  0  0  0  0  0  0  0
    5.0142   -1.8744    0.0534 H   0  0  0  0  0  0  0  0  0  0  0  0
    5.5479    2.3843   -0.1005 H   0  0  0  0  0  0  0  0  0  0  0  0
    6.5001    0.1059   -0.0374 H   0  0  0  0  0  0  0  0  0  0  0  0
   -4.7480    0.9243   -2.0898 H   0  0  0  0  0  0  0  0  0  0  0  0
   -3.4668   -0.5556    1.6285 H   0  0  0  0  0  0  0  0  0  0  0  0
   -5.8871    2.2403    0.0381 H   0  0  0  0  0  0  0  0  0  0  0  0
  1 10  1  0  0  0  0
  2  8  1  0  0  0  0
  2  9  1  0  0  0  0
  3 13  2  0  0  0  0
  4 11  1  0  0  0  0
  4 13  1  0  0  0  0
  4 22  1  0  0  0  0
  5  6  1  0  0  0  0
  5 12  1  0  0  0  0
  5 28  1  0  0  0  0
  6 19  2  0  0  0  0
  7  8  1  0  0  0  0
  7 10  1  0  0  0  0
  7 14  2  0  0  0  0
  8 15  2  0  0  0  0
  9 10  2  0  0  0  0
  9 13  1  0  0  0  0
 11 12  1  0  0  0  0
 11 20  1  0  0  0  0
 11 21  1  0  0  0  0
 12 18  2  0  0  0  0
 14 16  1  0  0  0  0
 14 23  1  0  0  0  0
 15 17  1  0  0  0  0
 15 24  1  0  0  0  0
 16 17  2  0  0  0  0
 16 25  1  0  0  0  0
 17 26  1  0  0  0  0
 18 19  1  0  0  0  0
 18 27  1  0  0  0  0
 19 29  1  0  0  0  0
M  END
> <PUBCHEM_COMPOUND_CID>
47205093

> <PUBCHEM_CONFORMER_RMSD>
0.6

> <PUBCHEM_CONFORMER_DIVERSEORDER>
2
30
51
47
24
35
38
16
42
21
45
44
18
39
23
43
6
13
34
17
19
50
5
41
9
28
48
31
49
33
29
7
37
52
14
12
22
36
46
20
8
26
32
3
25
11
4
40
27
10
15
1

> <PUBCHEM_MMFF94_PARTIAL_CHARGES>
26
1 -0.12
10 0.12
11 0.48
12 -0.33
13 0.71
14 -0.15
15 -0.15
16 -0.15
17 -0.15
18 -0.15
19 0.14
2 -0.08
22 0.37
23 0.15
24 0.15
25 0.15
26 0.15
27 0.15
28 0.27
29 0.15
3 -0.57
4 -0.73
5 0.3
6 -0.71
8 0.04
9 -0.05

> <PUBCHEM_EFFECTIVE_ROTOR_COUNT>
4

> <PUBCHEM_PHARMACOPHORE_FEATURES>
7
1 3 acceptor
1 4 donor
1 5 donor
1 6 acceptor
5 2 7 8 9 10 rings
5 5 6 12 18 19 rings
6 7 8 14 15 16 17 rings

> <PUBCHEM_HEAVY_ATOM_COUNT>
19

> <PUBCHEM_ATOM_DEF_STEREO_COUNT>
0

> <PUBCHEM_ATOM_UDEF_STEREO_COUNT>
0

> <PUBCHEM_BOND_DEF_STEREO_COUNT>
0

> <PUBCHEM_BOND_UDEF_STEREO_COUNT>
0

> <PUBCHEM_ISOTOPIC_ATOM_COUNT>
0

> <PUBCHEM_COMPONENT_COUNT>
1

> <PUBCHEM_CACTVS_TAUTO_COUNT>
4

> <PUBCHEM_CONFORMER_ID>
02D04AE500000002

> <PUBCHEM_MMFF94_ENERGY>
31.1544

> <PUBCHEM_FEATURE_SELFOVERLAP>
35.58

> <PUBCHEM_SHAPE_MULTIPOLES>
375.92
12.22
2.01
0.92
4.12
0.05
-0.02
4.61
0.01
-0.53
-0.1
1
-0.09
-0.38

> <PUBCHEM_SHAPE_SELFOVERLAP>
800.005

> <PUBCHEM_SHAPE_VOLUME>
212

> <PUBCHEM_COORDINATE_TYPE>
2
5
10

$$$$

