5467
  -OEChem-06261200423D

 46 46  0     0  0  0  0  0  0999 V2000
    4.1945    1.8223   -0.4124 S   0  0  0  0  0  0  0  0  0  0  0  0
    1.0080   -3.0712    0.4248 O   0  0  0  0  0  0  0  0  0  0  0  0
   -0.7580   -1.4151    1.5018 O   0  0  0  0  0  0  0  0  0  0  0  0
    5.2866    1.4913   -1.3164 O   0  0  0  0  0  0  0  0  0  0  0  0
    3.2987    2.9247   -0.7341 O   0  0  0  0  0  0  0  0  0  0  0  0
   -4.6139    0.5397   -0.0221 N   0  0  0  0  0  0  0  0  0  0  0  0
   -0.9096    0.5867    0.3397 N   0  0  0  0  0  0  0  0  0  0  0  0
   -3.2220    0.2688   -0.3798 C   0  0  0  0  0  0  0  0  0  0  0  0
   -2.2834    0.8662    0.6581 C   0  0  0  0  0  0  0  0  0  0  0  0
   -4.8478    1.9805    0.0666 C   0  0  0  0  0  0  0  0  0  0  0  0
   -5.5196   -0.0660   -0.9978 C   0  0  0  0  0  0  0  0  0  0  0  0
   -6.2737    2.2798    0.4971 C   0  0  0  0  0  0  0  0  0  0  0  0
   -5.2904   -1.5642   -1.1031 C   0  0  0  0  0  0  0  0  0  0  0  0
    1.1764   -0.6788    0.3999 C   0  0  0  0  0  0  0  0  0  0  0  0
   -0.2498   -0.5488    0.7949 C   0  0  0  0  0  0  0  0  0  0  0  0
    3.2461    0.3773   -0.1633 C   0  0  0  0  0  0  0  0  0  0  0  0
    1.9055    0.4782    0.2087 C   0  0  0  0  0  0  0  0  0  0  0  0
    1.7314   -1.9317    0.2352 C   0  0  0  0  0  0  0  0  0  0  0  0
    3.8294   -0.8780   -0.3364 C   0  0  0  0  0  0  0  0  0  0  0  0
    3.0720   -2.0325   -0.1371 C   0  0  0  0  0  0  0  0  0  0  0  0
    4.8938    2.1720    1.1850 C   0  0  0  0  0  0  0  0  0  0  0  0
    0.3259   -3.6014   -0.7096 C   0  0  0  0  0  0  0  0  0  0  0  0
   -2.9785    0.6590   -1.3773 H   0  0  0  0  0  0  0  0  0  0  0  0
   -3.0173   -0.8070   -0.3970 H   0  0  0  0  0  0  0  0  0  0  0  0
   -2.5065    0.4795    1.6592 H   0  0  0  0  0  0  0  0  0  0  0  0
   -2.3248    1.9575    0.6906 H   0  0  0  0  0  0  0  0  0  0  0  0
   -4.2318    2.4368    0.8459 H   0  0  0  0  0  0  0  0  0  0  0  0
   -4.6271    2.4941   -0.8774 H   0  0  0  0  0  0  0  0  0  0  0  0
   -6.5611    0.0522   -0.6817 H   0  0  0  0  0  0  0  0  0  0  0  0
   -5.4201    0.3919   -1.9900 H   0  0  0  0  0  0  0  0  0  0  0  0
   -0.4491    1.2288   -0.2970 H   0  0  0  0  0  0  0  0  0  0  0  0
   -6.3589    3.3360    0.7777 H   0  0  0  0  0  0  0  0  0  0  0  0
   -6.5682    1.6866    1.3698 H   0  0  0  0  0  0  0  0  0  0  0  0
   -6.9973    2.1136   -0.3069 H   0  0  0  0  0  0  0  0  0  0  0  0
   -6.1273   -2.0245   -1.6410 H   0  0  0  0  0  0  0  0  0  0  0  0
   -5.2382   -2.0397   -0.1176 H   0  0  0  0  0  0  0  0  0  0  0  0
   -4.3870   -1.8119   -1.6691 H   0  0  0  0  0  0  0  0  0  0  0  0
    1.4788    1.4613    0.3800 H   0  0  0  0  0  0  0  0  0  0  0  0
    4.8734   -0.9806   -0.6188 H   0  0  0  0  0  0  0  0  0  0  0  0
    3.5337   -3.0070   -0.2715 H   0  0  0  0  0  0  0  0  0  0  0  0
    5.5125    1.3275    1.4943 H   0  0  0  0  0  0  0  0  0  0  0  0
    4.0847    2.3426    1.8976 H   0  0  0  0  0  0  0  0  0  0  0  0
    5.5082    3.0707    1.0966 H   0  0  0  0  0  0  0  0  0  0  0  0
   -0.3717   -2.8671   -1.1248 H   0  0  0  0  0  0  0  0  0  0  0  0
   -0.2418   -4.4789   -0.3883 H   0  0  0  0  0  0  0  0  0  0  0  0
    1.0439   -3.9107   -1.4756 H   0  0  0  0  0  0  0  0  0  0  0  0
  1  4  2  0  0  0  0
  1  5  2  0  0  0  0
  1 16  1  0  0  0  0
  1 21  1  0  0  0  0
  2 18  1  0  0  0  0
  2 22  1  0  0  0  0
  3 15  2  0  0  0  0
  6  8  1  0  0  0  0
  6 10  1  0  0  0  0
  6 11  1  0  0  0  0
  7  9  1  0  0  0  0
  7 15  1  0  0  0  0
  7 31  1  0  0  0  0
  8  9  1  0  0  0  0
  8 23  1  0  0  0  0
  8 24  1  0  0  0  0
  9 25  1  0  0  0  0
  9 26  1  0  0  0  0
 10 12  1  0  0  0  0
 10 27  1  0  0  0  0
 10 28  1  0  0  0  0
 11 13  1  0  0  0  0
 11 29  1  0  0  0  0
 11 30  1  0  0  0  0
 12 32  1  0  0  0  0
 12 33  1  0  0  0  0
 12 34  1  0  0  0  0
 13 35  1  0  0  0  0
 13 36  1  0  0  0  0
 13 37  1  0  0  0  0
 14 15  1  0  0  0  0
 14 17  1  0  0  0  0
 14 18  2  0  0  0  0
 16 17  2  0  0  0  0
 16 19  1  0  0  0  0
 17 38  1  0  0  0  0
 18 20  1  0  0  0  0
 19 20  2  0  0  0  0
 19 39  1  0  0  0  0
 20 40  1  0  0  0  0
 21 41  1  0  0  0  0
 21 42  1  0  0  0  0
 21 43  1  0  0  0  0
 22 44  1  0  0  0  0
 22 45  1  0  0  0  0
 22 46  1  0  0  0  0
M  END
> <PUBCHEM_COMPOUND_CID>
5467

> <PUBCHEM_CONFORMER_RMSD>
0.8

> <PUBCHEM_CONFORMER_DIVERSEORDER>
6
139
101
123
42
15
141
129
39
21
70
96
72
162
90
147
159
116
107
79
118
27
68
80
52
144
105
132
153
71
156
77
29
25
28
148
12
64
109
51
136
95
108
30
66
38
74
127
97
26
33
93
44
20
58
126
106
83
146
78
113
155
131
47
152
165
120
1
160
98
119
59
163
56
91
8
46
89
124
16
14
122
112
143
43
94
22
121
150
142
88
31
138
82
125
85
19
117
67
50
161
35
134
111
86
65
140
104
57
7
75
151
137
114
23
4
2
128
99
81
41
130
17
102
154
11
87
166
103
37
157
34
10
18
145
110
69
62
61
3
158
5
13
100
133
76
92
63
135
49
45
84
9
40
54
55
73
36
149
48
115
53
24
164
32
60

> <PUBCHEM_MMFF94_PARTIAL_CHARGES>
24
1 1.2
10 0.27
11 0.27
14 0.09
15 0.54
16 -0.01
17 -0.15
18 0.08
19 -0.15
2 -0.36
20 -0.15
21 0.11
22 0.28
3 -0.57
31 0.37
38 0.15
39 0.15
4 -0.65
40 0.15
5 -0.65
6 -0.81
7 -0.73
8 0.27
9 0.3

> <PUBCHEM_EFFECTIVE_ROTOR_COUNT>
9

> <PUBCHEM_PHARMACOPHORE_FEATURES>
7
1 2 acceptor
1 3 acceptor
1 4 acceptor
1 5 acceptor
1 6 cation
1 7 donor
6 14 16 17 18 19 20 rings

> <PUBCHEM_HEAVY_ATOM_COUNT>
22

> <PUBCHEM_ATOM_DEF_STEREO_COUNT>
0

> <PUBCHEM_ATOM_UDEF_STEREO_COUNT>
0

> <PUBCHEM_BOND_DEF_STEREO_COUNT>
0

> <PUBCHEM_BOND_UDEF_STEREO_COUNT>
0

> <PUBCHEM_ISOTOPIC_ATOM_COUNT>
0

> <PUBCHEM_COMPONENT_COUNT>
1

> <PUBCHEM_CACTVS_TAUTO_COUNT>
2

> <PUBCHEM_CONFORMER_ID>
0000155B00000006

> <PUBCHEM_MMFF94_ENERGY>
50.748

> <PUBCHEM_FEATURE_SELFOVERLAP>
35.547

> <PUBCHEM_SHAPE_FINGERPRINT>
10411042 1 17548133785065274354
10595046 47 18408326601387118013
10616163 171 18187935019012368415
10693767 8 18042678593701664462
12107183 9 17253144745697275561
12403260 363 18269560592882645114
12616971 3 18270686497232154587
12730499 353 18342163510101449331
12788726 201 17168982452003105993
13167823 11 18334299807677752063
13631057 29 18189905219358373927
13836976 161 18261957461075864294
13955234 65 18197779001627417939
14251757 5 17897451588589584295
14251758 9 9367080951621990291
14528608 73 18409730659960008341
15250474 111 18261971733953958447
173720 79 18129118744264082586
17834072 33 18335422387427123181
17844677 252 18266733761605058993
17980427 23 17273969155970977775
18681886 176 18261682570700834370
20645477 70 18338233885482188327
21054139 6 18334586732472550463
21709351 56 18339650065143572935
22182313 1 18197190617083430074
23402655 69 18408886256557252299
23559900 14 18117284855017263851
239999 70 18115586087924552334
2838139 119 18343302535476132780
3004659 81 18115591589851335719
3060560 45 18337949099555269134
335352 9 18412822483332797846
4280585 95 17249478938880657118
43658 37 18409450246119599760
474 4 18343018878529318192
495365 180 18409732885011329320
5104073 3 18272369797873314443
6327066 14 18198903600787144468
633830 44 18271809077139963163
8272917 22 18265048205430524407

> <PUBCHEM_SHAPE_MULTIPOLES>
423.16
13.74
3.52
1.06
15.58
1.54
0.01
-9.98
-2.96
-1.85
-0.24
-0.17
-0.06
-1.16

> <PUBCHEM_SHAPE_SELFOVERLAP>
842.967

> <PUBCHEM_SHAPE_VOLUME>
253.4

> <PUBCHEM_COORDINATE_TYPE>
2
5
10

$$$$

