17395448
  -OEChem-06241222503D

 45 47  0     0  0  0  0  0  0999 V2000
   -0.5169    1.5610   -1.1336 O   0  0  0  0  0  0  0  0  0  0  0  0
   -6.0790   -0.5381   -1.0724 O   0  0  0  0  0  0  0  0  0  0  0  0
    0.7102    2.4462    0.6284 N   0  0  0  0  0  0  0  0  0  0  0  0
    5.5736   -1.6111   -0.1830 N   0  0  0  0  0  0  0  0  0  0  0  0
   -3.6536    1.8101    0.0187 N   0  0  0  0  0  0  0  0  0  0  0  0
   -4.7737    1.2603   -0.5042 N   0  0  0  0  0  0  0  0  0  0  0  0
   -2.8532   -0.4499    0.4860 C   0  0  0  0  0  0  0  0  0  0  0  0
   -2.7380    1.0224    0.4898 C   0  0  0  0  0  0  0  0  0  0  0  0
   -1.4975    1.6618    1.0677 C   0  0  0  0  0  0  0  0  0  0  0  0
    1.8971    2.7518   -0.1343 C   0  0  0  0  0  0  0  0  0  0  0  0
    2.8674    1.6005   -0.1472 C   0  0  0  0  0  0  0  0  0  0  0  0
   -4.0138   -0.9944   -0.0570 C   0  0  0  0  0  0  0  0  0  0  0  0
   -0.4101    1.8682    0.0509 C   0  0  0  0  0  0  0  0  0  0  0  0
    4.6650   -0.5326   -0.1710 C   0  0  0  0  0  0  0  0  0  0  0  0
    3.8451    1.5013    0.8427 C   0  0  0  0  0  0  0  0  0  0  0  0
    2.7885    0.6332   -1.1490 C   0  0  0  0  0  0  0  0  0  0  0  0
   -1.8615   -1.2915    0.9963 C   0  0  0  0  0  0  0  0  0  0  0  0
    4.7438    0.4347    0.8308 C   0  0  0  0  0  0  0  0  0  0  0  0
    3.6873   -0.4334   -1.1611 C   0  0  0  0  0  0  0  0  0  0  0  0
   -5.0447   -0.0885   -0.5881 C   0  0  0  0  0  0  0  0  0  0  0  0
   -4.1943   -2.3803   -0.0957 C   0  0  0  0  0  0  0  0  0  0  0  0
   -2.0402   -2.6757    0.9580 C   0  0  0  0  0  0  0  0  0  0  0  0
   -3.2034   -3.2190    0.4135 C   0  0  0  0  0  0  0  0  0  0  0  0
    6.6020   -1.7158    0.8331 C   0  0  0  0  0  0  0  0  0  0  0  0
    5.4999   -2.6215   -1.2195 C   0  0  0  0  0  0  0  0  0  0  0  0
   -1.1172    1.1061    1.9285 H   0  0  0  0  0  0  0  0  0  0  0  0
   -1.7817    2.6508    1.4529 H   0  0  0  0  0  0  0  0  0  0  0  0
    2.3599    3.6371    0.3164 H   0  0  0  0  0  0  0  0  0  0  0  0
    1.6177    3.0256   -1.1586 H   0  0  0  0  0  0  0  0  0  0  0  0
    0.7145    2.6509    1.6236 H   0  0  0  0  0  0  0  0  0  0  0  0
    3.9149    2.2482    1.6292 H   0  0  0  0  0  0  0  0  0  0  0  0
    2.0345    0.7000   -1.9285 H   0  0  0  0  0  0  0  0  0  0  0  0
   -0.9343   -0.9161    1.4147 H   0  0  0  0  0  0  0  0  0  0  0  0
    5.4852    0.4020    1.6231 H   0  0  0  0  0  0  0  0  0  0  0  0
    3.5853   -1.1590   -1.9619 H   0  0  0  0  0  0  0  0  0  0  0  0
   -5.0933   -2.8222   -0.5159 H   0  0  0  0  0  0  0  0  0  0  0  0
   -5.4462    1.9358   -0.8534 H   0  0  0  0  0  0  0  0  0  0  0  0
   -1.2688   -3.3322    1.3505 H   0  0  0  0  0  0  0  0  0  0  0  0
   -3.3371   -4.2965    0.3853 H   0  0  0  0  0  0  0  0  0  0  0  0
    7.2287   -2.6024    0.6851 H   0  0  0  0  0  0  0  0  0  0  0  0
    6.1629   -1.8089    1.8327 H   0  0  0  0  0  0  0  0  0  0  0  0
    7.2746   -0.8512    0.8063 H   0  0  0  0  0  0  0  0  0  0  0  0
    6.2672   -3.3927   -1.0884 H   0  0  0  0  0  0  0  0  0  0  0  0
    5.6637   -2.1843   -2.2108 H   0  0  0  0  0  0  0  0  0  0  0  0
    4.5339   -3.1384   -1.2009 H   0  0  0  0  0  0  0  0  0  0  0  0
  1 13  2  0  0  0  0
  2 20  2  0  0  0  0
  3 10  1  0  0  0  0
  3 13  1  0  0  0  0
  3 30  1  0  0  0  0
  4 14  1  0  0  0  0
  4 24  1  0  0  0  0
  4 25  1  0  0  0  0
  5  6  1  0  0  0  0
  5  8  2  0  0  0  0
  6 20  1  0  0  0  0
  6 37  1  0  0  0  0
  7  8  1  0  0  0  0
  7 12  1  0  0  0  0
  7 17  2  0  0  0  0
  8  9  1  0  0  0  0
  9 13  1  0  0  0  0
  9 26  1  0  0  0  0
  9 27  1  0  0  0  0
 10 11  1  0  0  0  0
 10 28  1  0  0  0  0
 10 29  1  0  0  0  0
 11 15  2  0  0  0  0
 11 16  1  0  0  0  0
 12 20  1  0  0  0  0
 12 21  2  0  0  0  0
 14 18  2  0  0  0  0
 14 19  1  0  0  0  0
 15 18  1  0  0  0  0
 15 31  1  0  0  0  0
 16 19  2  0  0  0  0
 16 32  1  0  0  0  0
 17 22  1  0  0  0  0
 17 33  1  0  0  0  0
 18 34  1  0  0  0  0
 19 35  1  0  0  0  0
 21 23  1  0  0  0  0
 21 36  1  0  0  0  0
 22 23  2  0  0  0  0
 22 38  1  0  0  0  0
 23 39  1  0  0  0  0
 24 40  1  0  0  0  0
 24 41  1  0  0  0  0
 24 42  1  0  0  0  0
 25 43  1  0  0  0  0
 25 44  1  0  0  0  0
 25 45  1  0  0  0  0
M  END
> <PUBCHEM_COMPOUND_CID>
17395448

> <PUBCHEM_CONFORMER_RMSD>
0.8

> <PUBCHEM_CONFORMER_DIVERSEORDER>
1
98
14
65
10
78
83
21
109
103
105
94
82
114
37
46
86
62
7
106
113
8
9
28
79
26
52
88
81
40
56
6
15
19
25
36
50
121
75
122
53
32
59
87
43
22
57
31
77
64
85
3
13
116
90
119
117
102
97
16
18
67
47
111
107
95
100
71
66
92
12
89
51
99
96
24
39
35
17
69
76
55
33
101
54
112
11
2
58
110
91
68
27
42
73
104
60
80
118
30
38
72
115
70
20
49
74
41
5
93
34
108
48
45
44
120
61
84
23
29
4
63

> <PUBCHEM_MMFF94_PARTIAL_CHARGES>
35
1 -0.57
10 0.44
11 -0.14
12 0.09
13 0.57
14 0.1
15 -0.15
16 -0.15
17 -0.15
18 -0.15
19 -0.15
2 -0.57
20 0.54
21 -0.15
22 -0.15
23 -0.15
24 0.37
25 0.37
3 -0.73
30 0.37
31 0.15
32 0.15
33 0.15
34 0.15
35 0.15
36 0.15
37 0.37
38 0.15
39 0.15
4 -0.84
5 -0.51
6 -0.37
7 0.09
8 0.3
9 0.12

> <PUBCHEM_EFFECTIVE_ROTOR_COUNT>
6

> <PUBCHEM_PHARMACOPHORE_FEATURES>
9
1 1 acceptor
1 2 acceptor
1 3 donor
1 4 cation
1 5 acceptor
1 6 donor
6 11 14 15 16 18 19 rings
6 5 6 7 8 12 20 rings
6 7 12 17 21 22 23 rings

> <PUBCHEM_HEAVY_ATOM_COUNT>
25

> <PUBCHEM_ATOM_DEF_STEREO_COUNT>
0

> <PUBCHEM_ATOM_UDEF_STEREO_COUNT>
0

> <PUBCHEM_BOND_DEF_STEREO_COUNT>
0

> <PUBCHEM_BOND_UDEF_STEREO_COUNT>
0

> <PUBCHEM_ISOTOPIC_ATOM_COUNT>
0

> <PUBCHEM_COMPONENT_COUNT>
1

> <PUBCHEM_CACTVS_TAUTO_COUNT>
4

> <PUBCHEM_CONFORMER_ID>
01096EF800000001

> <PUBCHEM_MMFF94_ENERGY>
81.7966

> <PUBCHEM_FEATURE_SELFOVERLAP>
45.694

> <PUBCHEM_SHAPE_FINGERPRINT>
10254770 206 18198079155960750674
10693767 8 17612045776659340247
11443803 9 16806157909152851497
11796584 16 18130234765371552456
12422481 6 18121187975831314691
12555020 224 18413394237399456965
12633257 1 18263343910946959392
12838863 1 18334588957070645526
13402501 40 18409165545585870822
13533116 47 18260269611774175264
14251751 18 18412545405706187784
14341114 328 4678813969652616888
14848178 5 18408604738588716192
14866123 147 18191015901774236977
14910302 57 18272662224558219621
15052358 14 18201730582478048669
15183329 4 17988929993382778938
15352361 1 18409726257882040066
15510800 12 18113606902844359430
15927050 60 17327738908038398061
17492 89 18125154935878851987
17627616 140 17914337033075006090
17857418 61 18341895229686381738
19958102 18 18201168710408424743
20403669 9 18335697252275001126
20567600 70 18411139135061824352
21279426 13 18412831300167394365
21315763 87 17240771691930981518
21781051 124 17702653360302092955
21864079 5 9367076501819827712
23559900 14 18337959969780080081
23572383 38 18334296461592396546
25122255 55 18334852831497470206
2747138 104 7492998639659718253
3004659 81 18130790057941733464
312425 54 17823131401505508096
312425 83 17417248715220514037
316301 35 18410577297462838666
3383291 50 18411981352078950179
339767 52 18409735058217548466
4015057 19 18188783755720439185
4280585 95 18342744039720003328
44062 13 18343581815766506307
463206 1 18272929444896794458
474144 1 17559974275439424906
508706 21 18341320201831587950
5104073 3 18041272197178805617
5207 123 18411982459773751964
559249 180 18411140277085541257
6138700 20 18411703227023027951
6695519 79 17325190845781007288
9709674 26 18195807371436571081

> <PUBCHEM_SHAPE_MULTIPOLES>
482.83
15.04
3.52
1.13
8.55
1.08
0.08
8.96
1.81
0.07
-0.31
0.48
0.15
0.94

> <PUBCHEM_SHAPE_SELFOVERLAP>
1039.658

> <PUBCHEM_SHAPE_VOLUME>
265.3

> <PUBCHEM_COORDINATE_TYPE>
2
5
10

$$$$

