13800
  -OEChem-06241222403D

 39 41  0     0  0  0  0  0  0999 V2000
   -1.8446   -1.6333    0.2144 O   0  0  0  0  0  0  0  0  0  0  0  0
    3.7319   -0.2931   -0.1195 N   0  0  0  0  0  0  0  0  0  0  0  0
   -0.4953   -1.8663    0.4509 N   0  0  0  0  0  0  0  0  0  0  0  0
    4.0045    0.9210    0.6625 C   0  0  0  0  0  0  0  0  0  0  0  0
    4.5151   -0.3113   -1.3630 C   0  0  0  0  0  0  0  0  0  0  0  0
    5.4879    1.0253    1.0206 C   0  0  0  0  0  0  0  0  0  0  0  0
    6.0151   -0.2470   -1.0712 C   0  0  0  0  0  0  0  0  0  0  0  0
    6.3641    0.9725   -0.2258 C   0  0  0  0  0  0  0  0  0  0  0  0
    2.3032   -0.4025   -0.4132 C   0  0  0  0  0  0  0  0  0  0  0  0
    1.4835   -0.5185    0.8742 C   0  0  0  0  0  0  0  0  0  0  0  0
    0.0148   -0.6559    0.5992 C   0  0  0  0  0  0  0  0  0  0  0  0
   -0.9086    0.3732    0.4768 C   0  0  0  0  0  0  0  0  0  0  0  0
   -2.0784   -0.2962    0.2322 C   0  0  0  0  0  0  0  0  0  0  0  0
   -3.4374    0.1003    0.0015 C   0  0  0  0  0  0  0  0  0  0  0  0
   -3.7859    1.4553   -0.0005 C   0  0  0  0  0  0  0  0  0  0  0  0
   -4.4263   -0.8637   -0.2227 C   0  0  0  0  0  0  0  0  0  0  0  0
   -5.1075    1.8417   -0.2237 C   0  0  0  0  0  0  0  0  0  0  0  0
   -5.7478   -0.4772   -0.4460 C   0  0  0  0  0  0  0  0  0  0  0  0
   -6.0884    0.8756   -0.4465 C   0  0  0  0  0  0  0  0  0  0  0  0
    3.4819    0.9169    1.6222 H   0  0  0  0  0  0  0  0  0  0  0  0
    3.6911    1.8204    0.1164 H   0  0  0  0  0  0  0  0  0  0  0  0
    4.2314    0.5248   -2.0158 H   0  0  0  0  0  0  0  0  0  0  0  0
    4.3157   -1.2378   -1.9150 H   0  0  0  0  0  0  0  0  0  0  0  0
    5.7629    0.2042    1.6951 H   0  0  0  0  0  0  0  0  0  0  0  0
    5.6741    1.9597    1.5624 H   0  0  0  0  0  0  0  0  0  0  0  0
    6.5744   -0.2160   -2.0131 H   0  0  0  0  0  0  0  0  0  0  0  0
    6.3262   -1.1581   -0.5444 H   0  0  0  0  0  0  0  0  0  0  0  0
    6.2136    1.8836   -0.8179 H   0  0  0  0  0  0  0  0  0  0  0  0
    7.4217    0.9435    0.0583 H   0  0  0  0  0  0  0  0  0  0  0  0
    1.9550    0.4533   -1.0078 H   0  0  0  0  0  0  0  0  0  0  0  0
    2.1230   -1.3003   -1.0194 H   0  0  0  0  0  0  0  0  0  0  0  0
    1.5857    0.3667    1.5102 H   0  0  0  0  0  0  0  0  0  0  0  0
    1.8295   -1.3756    1.4669 H   0  0  0  0  0  0  0  0  0  0  0  0
   -0.7536    1.4393    0.5530 H   0  0  0  0  0  0  0  0  0  0  0  0
   -3.0445    2.2320    0.1701 H   0  0  0  0  0  0  0  0  0  0  0  0
   -4.2010   -1.9273   -0.2299 H   0  0  0  0  0  0  0  0  0  0  0  0
   -5.3731    2.8949   -0.2241 H   0  0  0  0  0  0  0  0  0  0  0  0
   -6.5122   -1.2291   -0.6196 H   0  0  0  0  0  0  0  0  0  0  0  0
   -7.1174    1.1765   -0.6204 H   0  0  0  0  0  0  0  0  0  0  0  0
  1  3  1  0  0  0  0
  1 13  1  0  0  0  0
  2  4  1  0  0  0  0
  2  5  1  0  0  0  0
  2  9  1  0  0  0  0
  3 11  2  0  0  0  0
  4  6  1  0  0  0  0
  4 20  1  0  0  0  0
  4 21  1  0  0  0  0
  5  7  1  0  0  0  0
  5 22  1  0  0  0  0
  5 23  1  0  0  0  0
  6  8  1  0  0  0  0
  6 24  1  0  0  0  0
  6 25  1  0  0  0  0
  7  8  1  0  0  0  0
  7 26  1  0  0  0  0
  7 27  1  0  0  0  0
  8 28  1  0  0  0  0
  8 29  1  0  0  0  0
  9 10  1  0  0  0  0
  9 30  1  0  0  0  0
  9 31  1  0  0  0  0
 10 11  1  0  0  0  0
 10 32  1  0  0  0  0
 10 33  1  0  0  0  0
 11 12  1  0  0  0  0
 12 13  2  0  0  0  0
 12 34  1  0  0  0  0
 13 14  1  0  0  0  0
 14 15  2  0  0  0  0
 14 16  1  0  0  0  0
 15 17  1  0  0  0  0
 15 35  1  0  0  0  0
 16 18  2  0  0  0  0
 16 36  1  0  0  0  0
 17 19  2  0  0  0  0
 17 37  1  0  0  0  0
 18 19  1  0  0  0  0
 18 38  1  0  0  0  0
 19 39  1  0  0  0  0
M  END
> <PUBCHEM_COMPOUND_CID>
13800

> <PUBCHEM_CONFORMER_RMSD>
0.8

> <PUBCHEM_CONFORMER_DIVERSEORDER>
1
10
6
18
15
19
16
9
3
13
17
4
21
2
11
5
8
14
12
20
7

> <PUBCHEM_MMFF94_PARTIAL_CHARGES>
22
1 -0.02
10 0.18
11 0.11
12 -0.15
13 0.09
14 0.05
15 -0.15
16 -0.15
17 -0.15
18 -0.15
19 -0.15
2 -0.81
3 -0.41
34 0.15
35 0.15
36 0.15
37 0.15
38 0.15
39 0.15
4 0.27
5 0.27
9 0.27

> <PUBCHEM_EFFECTIVE_ROTOR_COUNT>
5.2

> <PUBCHEM_PHARMACOPHORE_FEATURES>
5
1 2 cation
1 3 acceptor
5 1 3 11 12 13 rings
6 14 15 16 17 18 19 rings
6 2 4 5 6 7 8 rings

> <PUBCHEM_HEAVY_ATOM_COUNT>
19

> <PUBCHEM_ATOM_DEF_STEREO_COUNT>
0

> <PUBCHEM_ATOM_UDEF_STEREO_COUNT>
0

> <PUBCHEM_BOND_DEF_STEREO_COUNT>
0

> <PUBCHEM_BOND_UDEF_STEREO_COUNT>
0

> <PUBCHEM_ISOTOPIC_ATOM_COUNT>
0

> <PUBCHEM_COMPONENT_COUNT>
1

> <PUBCHEM_CACTVS_TAUTO_COUNT>
1

> <PUBCHEM_CONFORMER_ID>
000035E800000001

> <PUBCHEM_MMFF94_ENERGY>
23.8751

> <PUBCHEM_FEATURE_SELFOVERLAP>
25.371

> <PUBCHEM_SHAPE_FINGERPRINT>
10354089 29 15052013460045627198
10670039 82 18341049726260957788
10688039 33 13470694754304106590
10730089 173 18411136952564589397
11089746 13 18202567250586447764
11646440 116 18410844460981356329
11719270 70 17749110024383424598
117890 112 18342458132363429724
12236239 1 17560805424482699578
12390115 104 18263075673640061169
12516196 113 9151170956813492054
12596602 18 13398625056610559485
12670543 26 18113334245213421514
12714333 28 18411419513898734178
12916748 109 18411979165401700913
13167372 99 16343712066197916084
13288520 33 7493283344462137667
13533116 47 18342180029084201114
13631057 29 17203040761198033795
13668630 136 15357694180340487780
13685833 64 7492997483975827213
14123256 34 7492998600424854541
1420 363 9655577413666443072
14251718 22 18186803569421618943
14251752 14 18113901589045149782
14251764 18 15985099687130280771
14528608 73 18410014338033174690
14933364 13 18260828202488498849
15183329 4 18186798123519080424
15348495 7 12175607465239902364
15537594 2 5906050331035470405
15716309 27 9583517611899306384
15778101 99 18335699490459663417
16079462 125 18114190709417114376
1813 80 5833992766961638666
18222031 100 5833990555602223946
19489759 90 18413670205874607681
200 152 15647047179454981018
20281389 69 17775290473427930636
20645477 56 18413671300885676347
20645477 70 17095514124411735830
21150785 3 17822018592790845669
21267235 1 18335421219902978399
21637258 2 5617251490244575948
22061861 79 17095238137891448396
221357 26 17676209086760543216
22224240 67 13614238166015351273
22289505 5 18113336406373645696
2297311 6 18040154020567035753
23035841 295 6988321633662224925
23198884 109 18408882953759082759
23402539 116 18409452479001453365
23536379 177 17022617593741726425
23559900 14 17822298941842650672
2767999 5 17846782905414213428
2916195 48 18409736140116777528
293599 30 18413671326892753051
29717793 49 15791723123135771372
300161 21 18272937132476855578
3004659 81 15791447141474746236
312425 54 11743840295979694109
3472631 163 18201715107884934876
34797466 226 17894628128084949085
351380 3 5906048136296307436
3545911 37 18410290311241318186
441001 317 18411138048018542401
465052 167 8574425452552341656
5104073 3 18130505357481371339
5283173 99 18187080697781169776
542803 24 17203890756172642256

> <PUBCHEM_SHAPE_MULTIPOLES>
375.18
17.66
1.48
0.98
6.52
0.1
-0.09
6
-4.21
-1.15
0.11
1.13
-0.02
0.79

> <PUBCHEM_SHAPE_SELFOVERLAP>
794.523

> <PUBCHEM_SHAPE_VOLUME>
211.2

> <PUBCHEM_COORDINATE_TYPE>
2
5
10

$$$$

