47205710
  -OEChem-06241223003D

 33 34  0     0  0  0  0  0  0999 V2000
   -2.2864    2.3904    0.2081 O   0  0  0  0  0  0  0  0  0  0  0  0
   -5.6524   -0.8264    0.4433 O   0  0  0  0  0  0  0  0  0  0  0  0
    2.2847    1.1212   -1.2667 O   0  0  0  0  0  0  0  0  0  0  0  0
   -3.9952    0.8066    0.3565 N   0  0  0  0  0  0  0  0  0  0  0  0
   -3.5229   -1.4415   -0.2384 N   0  0  0  0  0  0  0  0  0  0  0  0
    2.9675   -0.4012    0.3857 N   0  0  0  0  0  0  0  0  0  0  0  0
    6.5121   -0.6019    0.7133 N   0  0  0  0  0  0  0  0  0  0  0  0
    6.4919    0.3165   -0.2677 N   0  0  0  0  0  0  0  0  0  0  0  0
   -1.7522    0.1646   -0.3751 C   0  0  0  0  0  0  0  0  0  0  0  0
   -2.6849    1.2322    0.0881 C   0  0  0  0  0  0  0  0  0  0  0  0
   -2.2226   -1.0800   -0.5061 C   0  0  0  0  0  0  0  0  0  0  0  0
   -4.4805   -0.5185    0.2046 C   0  0  0  0  0  0  0  0  0  0  0  0
   -4.9393    1.8127    0.8327 C   0  0  0  0  0  0  0  0  0  0  0  0
   -3.8845   -2.8426   -0.4358 C   0  0  0  0  0  0  0  0  0  0  0  0
   -0.3784    0.4847   -0.6716 C   0  0  0  0  0  0  0  0  0  0  0  0
    0.6509   -0.0804   -0.0333 C   0  0  0  0  0  0  0  0  0  0  0  0
    2.0516    0.2966   -0.3909 C   0  0  0  0  0  0  0  0  0  0  0  0
    4.3804   -0.3117    0.3362 C   0  0  0  0  0  0  0  0  0  0  0  0
    5.2733   -1.0111    1.1109 C   0  0  0  0  0  0  0  0  0  0  0  0
    5.1869    0.4898   -0.4938 C   0  0  0  0  0  0  0  0  0  0  0  0
   -1.5810   -1.8890   -0.8455 H   0  0  0  0  0  0  0  0  0  0  0  0
   -4.4669    2.7792    1.0224 H   0  0  0  0  0  0  0  0  0  0  0  0
   -5.4070    1.4532    1.7548 H   0  0  0  0  0  0  0  0  0  0  0  0
   -5.7224    1.9345    0.0775 H   0  0  0  0  0  0  0  0  0  0  0  0
   -3.2605   -3.4676    0.2112 H   0  0  0  0  0  0  0  0  0  0  0  0
   -3.7155   -3.1111   -1.4835 H   0  0  0  0  0  0  0  0  0  0  0  0
   -4.9344   -3.0247   -0.1921 H   0  0  0  0  0  0  0  0  0  0  0  0
   -0.2251    1.2547   -1.4227 H   0  0  0  0  0  0  0  0  0  0  0  0
    0.4978   -0.8277    0.7394 H   0  0  0  0  0  0  0  0  0  0  0  0
    2.6238   -1.0610    1.0800 H   0  0  0  0  0  0  0  0  0  0  0  0
    5.1443   -1.7470    1.8920 H   0  0  0  0  0  0  0  0  0  0  0  0
    4.8925    1.1958   -1.2568 H   0  0  0  0  0  0  0  0  0  0  0  0
    7.4104   -0.9066    1.0668 H   0  0  0  0  0  0  0  0  0  0  0  0
  1 10  2  0  0  0  0
  2 12  2  0  0  0  0
  3 17  2  0  0  0  0
  4 10  1  0  0  0  0
  4 12  1  0  0  0  0
  4 13  1  0  0  0  0
  5 11  1  0  0  0  0
  5 12  1  0  0  0  0
  5 14  1  0  0  0  0
  6 17  1  0  0  0  0
  6 18  1  0  0  0  0
  6 30  1  0  0  0  0
  7  8  1  0  0  0  0
  7 19  1  0  0  0  0
  7 33  1  0  0  0  0
  8 20  2  0  0  0  0
  9 10  1  0  0  0  0
  9 11  2  0  0  0  0
  9 15  1  0  0  0  0
 11 21  1  0  0  0  0
 13 22  1  0  0  0  0
 13 23  1  0  0  0  0
 13 24  1  0  0  0  0
 14 25  1  0  0  0  0
 14 26  1  0  0  0  0
 14 27  1  0  0  0  0
 15 16  2  0  0  0  0
 15 28  1  0  0  0  0
 16 17  1  0  0  0  0
 16 29  1  0  0  0  0
 18 19  2  0  0  0  0
 18 20  1  0  0  0  0
 19 31  1  0  0  0  0
 20 32  1  0  0  0  0
M  END
> <PUBCHEM_COMPOUND_CID>
47205710

> <PUBCHEM_CONFORMER_RMSD>
0.6

> <PUBCHEM_CONFORMER_DIVERSEORDER>
1
6
2
10
7
12
11
9
8
4
3
5

> <PUBCHEM_MMFF94_PARTIAL_CHARGES>
27
1 -0.57
10 0.62
11 -0.04
12 0.69
13 0.3
14 0.3
15 -0.15
16 -0.14
17 0.62
18 0.06
19 -0.3
2 -0.57
20 0.14
21 0.15
28 0.15
29 0.15
3 -0.57
30 0.37
31 0.15
32 0.15
33 0.27
4 -0.42
5 -0.47
6 -0.49
7 0.3
8 -0.71
9 0.01

> <PUBCHEM_EFFECTIVE_ROTOR_COUNT>
4

> <PUBCHEM_PHARMACOPHORE_FEATURES>
8
1 1 acceptor
1 2 acceptor
1 3 acceptor
1 6 donor
1 7 donor
1 8 acceptor
5 7 8 18 19 20 rings
6 4 5 9 10 11 12 rings

> <PUBCHEM_HEAVY_ATOM_COUNT>
20

> <PUBCHEM_ATOM_DEF_STEREO_COUNT>
0

> <PUBCHEM_ATOM_UDEF_STEREO_COUNT>
0

> <PUBCHEM_BOND_DEF_STEREO_COUNT>
0

> <PUBCHEM_BOND_UDEF_STEREO_COUNT>
1

> <PUBCHEM_ISOTOPIC_ATOM_COUNT>
0

> <PUBCHEM_COMPONENT_COUNT>
1

> <PUBCHEM_CACTVS_TAUTO_COUNT>
4

> <PUBCHEM_CONFORMER_ID>
02D04D4E00000001

> <PUBCHEM_MMFF94_ENERGY>
39.3883

> <PUBCHEM_FEATURE_SELFOVERLAP>
40.594

> <PUBCHEM_SHAPE_FINGERPRINT>
10299344 5 18272367586387363602
10411042 1 18046911477477443623
10595046 47 18341895165293351812
10912923 1 18273497871249872832
11315181 36 18341613698363354261
11524674 6 17022623069867747383
12107183 9 17620480537886142856
12236239 1 18202844361517735044
12596602 18 18334297552909410976
12616971 3 17774995786994472876
13167823 11 18342461443683085666
13288520 33 18413389817846454287
13403585 85 18187368726851366496
13668630 136 16128654150056448202
14251764 18 18412541012160385281
14341114 176 18334571378190638178
14844126 61 18337108948292137739
14849402 71 18270396067597798148
15348495 7 17822018562546960506
15716309 27 18060139847308585362
17834072 33 18272651230005950300
17844677 252 18260827077592293424
17857418 61 18272654528219106214
1813 80 17346307250217976926
18927931 339 18261109643480063487
19489759 90 17966971625685415579
200 152 17632861918834861261
20645477 56 17167866382521944837
20645477 70 14979692030356243856
21033648 29 16588320418113418098
21267235 1 18341324510026319595
220451 1 18272647970194370254
22061861 79 14261357985569710618
2297311 6 18186792582721423452
2303208 19 17095512990492786582
23035841 295 18341612642434480170
23402539 116 18412548699566334839
23522609 53 17986646304002086540
23557571 272 17894621578354930548
23559900 14 18338526214031212193
314194 84 17704075097123442234
34797466 226 17894621523316915060
351380 3 17846784013863902938
4214541 1 18409730668402236692
5104073 3 18335415712636690593
5364581 5 17751941132947388184
542803 24 18335421274977748524
559249 180 18272655670996775047
573450 72 18411703183598458350
7495541 125 18187930539118495848

> <PUBCHEM_SHAPE_MULTIPOLES>
369.08
15.97
1.92
0.89
17.87
0.44
0
2.11
-3.52
-3.57
0
0.46
-0.04
-1.43

> <PUBCHEM_SHAPE_SELFOVERLAP>
781.022

> <PUBCHEM_SHAPE_VOLUME>
206.4

> <PUBCHEM_COORDINATE_TYPE>
2
5
10

$$$$

