47205125
  -OEChem-06241222583D

 30 31  0     1  0  0  0  0  0999 V2000
   -0.0173   -1.7787   -0.6655 Br  0  0  0  0  0  0  0  0  0  0  0  0
    5.0169   -2.6934    0.4447 Cl  0  0  0  0  0  0  0  0  0  0  0  0
   -0.5727    1.5314   -0.6077 S   0  0  0  0  0  0  0  0  0  0  0  0
    3.1853   -0.5224    1.3105 S   0  0  0  0  0  0  0  0  0  0  0  0
   -5.0898   -2.1288    0.3910 F   0  0  0  0  0  0  0  0  0  0  0  0
    0.1666    1.0446   -1.7580 O   0  0  0  0  0  0  0  0  0  0  0  0
   -1.1492    2.8629   -0.6414 O   0  0  0  0  0  0  0  0  0  0  0  0
    0.3936    1.3594    0.8103 N   0  0  1  0  0  0  0  0  0  0  0  0
    1.8033    1.8222    0.7483 C   0  0  0  0  0  0  0  0  0  0  0  0
   -1.8970    0.3929   -0.3137 C   0  0  0  0  0  0  0  0  0  0  0  0
    2.7336    0.7491    0.2563 C   0  0  0  0  0  0  0  0  0  0  0  0
   -0.2356    1.6682    2.1194 C   0  0  0  0  0  0  0  0  0  0  0  0
   -1.7105   -0.9894   -0.3283 C   0  0  0  0  0  0  0  0  0  0  0  0
   -3.1621    0.9234   -0.0608 C   0  0  0  0  0  0  0  0  0  0  0  0
    3.3149    0.6218   -0.9860 C   0  0  0  0  0  0  0  0  0  0  0  0
   -2.7889   -1.8412   -0.0903 C   0  0  0  0  0  0  0  0  0  0  0  0
   -4.2406    0.0714    0.1774 C   0  0  0  0  0  0  0  0  0  0  0  0
   -4.0540   -1.3109    0.1625 C   0  0  0  0  0  0  0  0  0  0  0  0
    4.1421   -0.5350   -1.0738 C   0  0  0  0  0  0  0  0  0  0  0  0
    4.1616   -1.2476    0.1051 C   0  0  0  0  0  0  0  0  0  0  0  0
    2.1443    2.1758    1.7298 H   0  0  0  0  0  0  0  0  0  0  0  0
    1.8634    2.6993    0.0912 H   0  0  0  0  0  0  0  0  0  0  0  0
   -1.2141    1.1924    2.2109 H   0  0  0  0  0  0  0  0  0  0  0  0
   -0.3438    2.7495    2.2442 H   0  0  0  0  0  0  0  0  0  0  0  0
    0.3833    1.2749    2.9325 H   0  0  0  0  0  0  0  0  0  0  0  0
   -3.3447    1.9933   -0.0373 H   0  0  0  0  0  0  0  0  0  0  0  0
    3.1588    1.3228   -1.7959 H   0  0  0  0  0  0  0  0  0  0  0  0
   -2.6646   -2.9211   -0.0974 H   0  0  0  0  0  0  0  0  0  0  0  0
   -5.2257    0.4835    0.3753 H   0  0  0  0  0  0  0  0  0  0  0  0
    4.6926   -0.8242   -1.9601 H   0  0  0  0  0  0  0  0  0  0  0  0
  1 13  1  0  0  0  0
  2 20  1  0  0  0  0
  3  6  2  0  0  0  0
  3  7  2  0  0  0  0
  3  8  1  0  0  0  0
  3 10  1  0  0  0  0
  4 11  1  0  0  0  0
  4 20  1  0  0  0  0
  5 18  1  0  0  0  0
  8  9  1  0  0  0  0
  8 12  1  0  0  0  0
  9 11  1  0  0  0  0
  9 21  1  0  0  0  0
  9 22  1  0  0  0  0
 10 13  2  0  0  0  0
 10 14  1  0  0  0  0
 11 15  2  0  0  0  0
 12 23  1  0  0  0  0
 12 24  1  0  0  0  0
 12 25  1  0  0  0  0
 13 16  1  0  0  0  0
 14 17  2  0  0  0  0
 14 26  1  0  0  0  0
 15 19  1  0  0  0  0
 15 27  1  0  0  0  0
 16 18  2  0  0  0  0
 16 28  1  0  0  0  0
 17 18  1  0  0  0  0
 17 29  1  0  0  0  0
 19 20  2  0  0  0  0
 19 30  1  0  0  0  0
M  END
> <PUBCHEM_COMPOUND_CID>
47205125

> <PUBCHEM_CONFORMER_RMSD>
0.6

> <PUBCHEM_CONFORMER_DIVERSEORDER>
1
248
172
74
222
249
137
109
102
129
258
168
162
194
245
144
39
232
177
251
236
234
209
223
199
159
216
76
202
69
142
99
175
158
181
75
51
176
205
108
88
190
20
101
82
195
155
93
238
84
94
34
154
124
218
121
163
133
225
80
5
139
70
244
35
173
213
230
228
113
167
95
221
198
239
141
115
86
131
114
204
2
87
183
130
40
103
116
105
60
201
255
152
138
180
150
32
211
65
41
208
231
110
217
227
212
207
67
91
24
151
246
77
237
83
111
64
179
169
63
128
188
79
160
54
250
240
73
203
71
12
145
104
148
156
112
210
191
171
53
229
89
56
186
153
118
61
256
72
49
29
45
6
147
134
135
92
28
215
247
106
78
189
136
241
8
85
7
233
46
220
196
178
3
125
166
96
200
59
98
242
68
119
164
30
187
143
17
140
58
123
31
14
185
33
235
252
132
23
126
184
243
19
257
25
214
4
37
52
219
27
21
253
122
47
42
66
18
224
43
107
197
90
36
55
254
206
149
81
127
157
170
146
50
57
100
38
182
97
226
120
165
192
161
174
22
193
48
117
62
10
15
13
9
11
44
26
16

> <PUBCHEM_MMFF94_PARTIAL_CHARGES>
25
1 -0.11
10 -0.01
11 -0.14
12 0.36
13 0.11
14 -0.15
15 -0.15
16 -0.15
17 -0.15
18 0.19
19 -0.15
2 -0.12
20 0.16
26 0.15
27 0.15
28 0.15
29 0.15
3 1.45
30 0.15
4 -0.08
5 -0.19
6 -0.65
7 -0.65
8 -0.85
9 0.54

> <PUBCHEM_EFFECTIVE_ROTOR_COUNT>
4

> <PUBCHEM_PHARMACOPHORE_FEATURES>
5
1 1 hydrophobe
1 6 acceptor
1 7 acceptor
5 4 11 15 19 20 rings
6 10 13 14 16 17 18 rings

> <PUBCHEM_HEAVY_ATOM_COUNT>
20

> <PUBCHEM_ATOM_DEF_STEREO_COUNT>
0

> <PUBCHEM_ATOM_UDEF_STEREO_COUNT>
0

> <PUBCHEM_BOND_DEF_STEREO_COUNT>
0

> <PUBCHEM_BOND_UDEF_STEREO_COUNT>
0

> <PUBCHEM_ISOTOPIC_ATOM_COUNT>
0

> <PUBCHEM_COMPONENT_COUNT>
1

> <PUBCHEM_CACTVS_TAUTO_COUNT>
1

> <PUBCHEM_CONFORMER_ID>
02D04B0500000001

> <PUBCHEM_MMFF94_ENERGY>
31.097

> <PUBCHEM_FEATURE_SELFOVERLAP>
25.39

> <PUBCHEM_SHAPE_FINGERPRINT>
10759866 29 18342166744749809030
1100329 8 16818535307796038809
12506688 2 18333450919880869656
12633257 1 18040706004556223665
12714826 92 18410018770555858524
12788726 201 17603854624936394400
12824470 246 18408881871511824392
12892183 10 17895760569506662753
13533116 47 17971195820774439403
13583140 156 14418428654188036727
14178342 30 17679857391448936536
14251751 18 18341620364627526978
14251764 30 18131057209002481459
15196674 1 18410856559713805046
16752209 62 18265910218172651016
17492 54 10879699936997630139
17804303 29 18335419037262870497
1813 80 17775008955258863245
19591789 44 18410858737489512631
19784866 135 18411705421292451928
20281475 54 18411698798600639312
20291156 8 18343585126991015332
21756936 100 8861782791440384130
22950370 63 18343294851763419707
23559900 14 18408890633282375476
3004659 81 18343299297545460790
3286 77 18335141985891458736
3472631 163 8430330017284450059
465052 167 18410286978521088143
5104073 3 18260265260993007760
633830 44 16056878052459628045
6786 2 7403321091891295109

> <PUBCHEM_SHAPE_MULTIPOLES>
403.11
9.42
2.75
1.32
1.44
0.17
-0.21
7.07
-0.79
-0.14
-0.24
0.66
-0.55
0.01

> <PUBCHEM_SHAPE_SELFOVERLAP>
800.006

> <PUBCHEM_SHAPE_VOLUME>
244.1

> <PUBCHEM_COORDINATE_TYPE>
2
5
10

$$$$

