582844
  -OEChem-06241222442D

 11 10  0     0  0  0  0  0  0999 V2000
    3.2320    0.8660    0.0000 Br  0  0  0  0  0  0  0  0  0  0  0  0
    4.2320   -0.8660    0.0000 Br  0  0  0  0  0  0  0  0  0  0  0  0
    5.4641    1.0000    0.0000 F   0  0  0  0  0  0  0  0  0  0  0  0
    4.0981    1.3660    0.0000 F   0  0  0  0  0  0  0  0  0  0  0  0
    5.0981   -0.3660    0.0000 F   0  0  0  0  0  0  0  0  0  0  0  0
    2.0000   -1.0000    0.0000 F   0  0  0  0  0  0  0  0  0  0  0  0
    2.3660    0.3660    0.0000 F   0  0  0  0  0  0  0  0  0  0  0  0
    3.3660   -1.3660    0.0000 F   0  0  0  0  0  0  0  0  0  0  0  0
    3.7320    0.0000    0.0000 C   0  0  0  0  0  0  0  0  0  0  0  0
    4.5981    0.5000    0.0000 C   0  0  0  0  0  0  0  0  0  0  0  0
    2.8660   -0.5000    0.0000 C   0  0  0  0  0  0  0  0  0  0  0  0
  1  9  1  0  0  0  0
  2  9  1  0  0  0  0
  3 10  1  0  0  0  0
  4 10  1  0  0  0  0
  5 10  1  0  0  0  0
  6 11  1  0  0  0  0
  7 11  1  0  0  0  0
  8 11  1  0  0  0  0
  9 10  1  0  0  0  0
  9 11  1  0  0  0  0
M  END
> <PUBCHEM_COMPOUND_CID>
582844

> <PUBCHEM_COMPOUND_CANONICALIZED>
1

> <PUBCHEM_CACTVS_COMPLEXITY>
127

> <PUBCHEM_CACTVS_HBOND_ACCEPTOR>
6

> <PUBCHEM_CACTVS_HBOND_DONOR>
0

> <PUBCHEM_CACTVS_ROTATABLE_BOND>
0

> <PUBCHEM_CACTVS_SUBSKEYS>
AAADcQBAAcAAGAAAAAAAAAAAAAAAAAAAAAAAAAAAAAAAAAAAAAAACQBAAAABiAAAABAAAAAAAAAAAAAAAAAAAAAAAAAAAAAAAAAAAAAAAAAAAAAAAAAAAAAAAAAAAAAAAAAAAAAAAAAAAAAAAAAAAAAAAA==

> <PUBCHEM_IUPAC_OPENEYE_NAME>
2,2-dibromo-1,1,1,3,3,3-hexafluoro-propane

> <PUBCHEM_IUPAC_CAS_NAME>
2,2-dibromo-1,1,1,3,3,3-hexafluoropropane

> <PUBCHEM_IUPAC_NAME>
2,2-dibromo-1,1,1,3,3,3-hexafluoropropane

> <PUBCHEM_IUPAC_SYSTEMATIC_NAME>
2,2-bis(bromanyl)-1,1,1,3,3,3-hexakis(fluoranyl)propane

> <PUBCHEM_IUPAC_TRADITIONAL_NAME>
2,2-dibromo-1,1,1,3,3,3-hexafluoro-propane

> <PUBCHEM_IUPAC_INCHI>
InChI=1S/C3Br2F6/c4-1(5,2(6,7)8)3(9,10)11

> <PUBCHEM_IUPAC_INCHIKEY>
VCRVQFFAKUROKA-UHFFFAOYSA-N

> <PUBCHEM_XLOGP3_AA>
4

> <PUBCHEM_EXACT_MASS>
309.825047

> <PUBCHEM_MOLECULAR_FORMULA>
C3Br2F6

> <PUBCHEM_MOLECULAR_WEIGHT>
309.830519

> <PUBCHEM_OPENEYE_CAN_SMILES>
C(C(F)(F)F)(C(F)(F)F)(Br)Br

> <PUBCHEM_OPENEYE_ISO_SMILES>
C(C(F)(F)F)(C(F)(F)F)(Br)Br

> <PUBCHEM_CACTVS_TPSA>
0

> <PUBCHEM_MONOISOTOPIC_WEIGHT>
307.827094

> <PUBCHEM_TOTAL_CHARGE>
0

> <PUBCHEM_HEAVY_ATOM_COUNT>
11

> <PUBCHEM_ATOM_DEF_STEREO_COUNT>
0

> <PUBCHEM_ATOM_UDEF_STEREO_COUNT>
0

> <PUBCHEM_BOND_DEF_STEREO_COUNT>
0

> <PUBCHEM_BOND_UDEF_STEREO_COUNT>
0

> <PUBCHEM_ISOTOPIC_ATOM_COUNT>
0

> <PUBCHEM_COMPONENT_COUNT>
1

> <PUBCHEM_CACTVS_TAUTO_COUNT>
1

> <PUBCHEM_COORDINATE_TYPE>
1
5
255

$$$$

