10898
  -OEChem-06261205053D

  9  8  0     0  0  0  0  0  0999 V2000
   -1.7778    0.5486   -0.1131 Br  0  0  0  0  0  0  0  0  0  0  0  0
    1.3557    0.7517    0.1768 O   0  0  0  0  0  0  0  0  0  0  0  0
    0.8733   -0.4761   -0.3544 C   0  0  0  0  0  0  0  0  0  0  0  0
   -0.4512   -0.8242    0.2907 C   0  0  0  0  0  0  0  0  0  0  0  0
    1.6154   -1.2510   -0.1412 H   0  0  0  0  0  0  0  0  0  0  0  0
    0.7860   -0.3737   -1.4410 H   0  0  0  0  0  0  0  0  0  0  0  0
   -0.8496   -1.7715   -0.0798 H   0  0  0  0  0  0  0  0  0  0  0  0
   -0.3779   -0.8469    1.3814 H   0  0  0  0  0  0  0  0  0  0  0  0
    0.6874    1.4328   -0.0108 H   0  0  0  0  0  0  0  0  0  0  0  0
  1  4  1  0  0  0  0
  2  3  1  0  0  0  0
  2  9  1  0  0  0  0
  3  4  1  0  0  0  0
  3  5  1  0  0  0  0
  3  6  1  0  0  0  0
  4  7  1  0  0  0  0
  4  8  1  0  0  0  0
M  END
> <PUBCHEM_COMPOUND_CID>
10898

> <PUBCHEM_CONFORMER_RMSD>
0.4

> <PUBCHEM_CONFORMER_DIVERSEORDER>
1
3
2

> <PUBCHEM_MMFF94_PARTIAL_CHARGES>
5
1 -0.23
2 -0.68
3 0.28
4 0.23
9 0.4

> <PUBCHEM_EFFECTIVE_ROTOR_COUNT>
1

> <PUBCHEM_PHARMACOPHORE_FEATURES>
3
1 1 hydrophobe
1 2 acceptor
1 2 donor

> <PUBCHEM_HEAVY_ATOM_COUNT>
4

> <PUBCHEM_ATOM_DEF_STEREO_COUNT>
0

> <PUBCHEM_ATOM_UDEF_STEREO_COUNT>
0

> <PUBCHEM_BOND_DEF_STEREO_COUNT>
0

> <PUBCHEM_BOND_UDEF_STEREO_COUNT>
0

> <PUBCHEM_ISOTOPIC_ATOM_COUNT>
0

> <PUBCHEM_COMPONENT_COUNT>
1

> <PUBCHEM_CACTVS_TAUTO_COUNT>
1

> <PUBCHEM_CONFORMER_ID>
00002A9200000001

> <PUBCHEM_MMFF94_ENERGY>
0.8051

> <PUBCHEM_FEATURE_SELFOVERLAP>
15.223

> <PUBCHEM_SHAPE_FINGERPRINT>
139733 1 10302082541058199655
20096714 4 18410574028317460385
21015797 1 9223235139093771242
5943 1 9148369602822599879

> <PUBCHEM_SHAPE_MULTIPOLES>
82.39
2.19
1.04
0.69
0.68
0.01
-0.03
-0.56
-0.1
-0.08
0.07
0.05
0.02
0.11

> <PUBCHEM_SHAPE_SELFOVERLAP>
123.398

> <PUBCHEM_SHAPE_VOLUME>
62.1

> <PUBCHEM_COORDINATE_TYPE>
2
5
10

$$$$

