17396357
  -OEChem-06241222562D

 44 45  0     0  0  0  0  0  0999 V2000
    6.8671   -1.5000    0.0000 O   0  0  0  0  0  0  0  0  0  0  0  0
    2.5369    2.0000    0.0000 O   0  0  0  0  0  0  0  0  0  0  0  0
    6.8671    0.5000    0.0000 O   0  0  0  0  0  0  0  0  0  0  0  0
    6.0010   -3.0000    0.0000 O   0  0  0  0  0  0  0  0  0  0  0  0
    6.0010    3.0000    0.0000 O   0  0  0  0  0  0  0  0  0  0  0  0
    4.2690    3.0000    0.0000 N   0  0  0  0  0  0  0  0  0  0  0  0
    7.7331   -4.0000    0.0000 C   0  0  0  0  0  0  0  0  0  0  0  0
    7.7331   -3.0000    0.0000 C   0  0  0  0  0  0  0  0  0  0  0  0
    9.4651   -4.0000    0.0000 C   0  0  0  0  0  0  0  0  0  0  0  0
    8.5991   -4.5000    0.0000 C   0  0  0  0  0  0  0  0  0  0  0  0
    5.1350    0.5000    0.0000 C   0  0  0  0  0  0  0  0  0  0  0  0
    8.5991   -2.5000    0.0000 C   0  0  0  0  0  0  0  0  0  0  0  0
    4.2690    2.0000    0.0000 C   0  0  0  0  0  0  0  0  0  0  0  0
    9.4651   -3.0000    0.0000 C   0  0  0  0  0  0  0  0  0  0  0  0
    5.1350    1.5000    0.0000 C   0  0  0  0  0  0  0  0  0  0  0  0
    6.0010    0.0000    0.0000 C   0  0  0  0  0  0  0  0  0  0  0  0
    6.0010   -1.0000    0.0000 C   0  0  0  0  0  0  0  0  0  0  0  0
    6.8671   -4.5000    0.0000 C   0  0  0  0  0  0  0  0  0  0  0  0
    6.8671   -2.5000    0.0000 C   0  0  0  0  0  0  0  0  0  0  0  0
    4.2690    0.0000    0.0000 C   0  0  0  0  0  0  0  0  0  0  0  0
    3.4030    1.5000    0.0000 C   0  0  0  0  0  0  0  0  0  0  0  0
    3.4030    0.5000    0.0000 C   0  0  0  0  0  0  0  0  0  0  0  0
   10.3312   -4.5000    0.0000 C   0  0  0  0  0  0  0  0  0  0  0  0
    5.1350    3.5000    0.0000 C   0  0  0  0  0  0  0  0  0  0  0  0
    5.1350    4.5000    0.0000 C   0  0  0  0  0  0  0  0  0  0  0  0
    8.5991   -5.1200    0.0000 H   0  0  0  0  0  0  0  0  0  0  0  0
    8.5991   -1.8800    0.0000 H   0  0  0  0  0  0  0  0  0  0  0  0
   10.0021   -2.6900    0.0000 H   0  0  0  0  0  0  0  0  0  0  0  0
    5.6720    1.8100    0.0000 H   0  0  0  0  0  0  0  0  0  0  0  0
    5.3905   -0.8923    0.0000 H   0  0  0  0  0  0  0  0  0  0  0  0
    5.7890   -1.5826    0.0000 H   0  0  0  0  0  0  0  0  0  0  0  0
    6.5571   -3.9631    0.0000 H   0  0  0  0  0  0  0  0  0  0  0  0
    6.3301   -4.8100    0.0000 H   0  0  0  0  0  0  0  0  0  0  0  0
    7.1771   -5.0369    0.0000 H   0  0  0  0  0  0  0  0  0  0  0  0
    4.2690   -0.6200    0.0000 H   0  0  0  0  0  0  0  0  0  0  0  0
    2.8660    0.1900    0.0000 H   0  0  0  0  0  0  0  0  0  0  0  0
   10.0212   -5.0369    0.0000 H   0  0  0  0  0  0  0  0  0  0  0  0
   10.8681   -4.8100    0.0000 H   0  0  0  0  0  0  0  0  0  0  0  0
   10.6412   -3.9631    0.0000 H   0  0  0  0  0  0  0  0  0  0  0  0
    3.7320    3.3100    0.0000 H   0  0  0  0  0  0  0  0  0  0  0  0
    2.0000    1.6900    0.0000 H   0  0  0  0  0  0  0  0  0  0  0  0
    5.7550    4.5000    0.0000 H   0  0  0  0  0  0  0  0  0  0  0  0
    5.1350    5.1200    0.0000 H   0  0  0  0  0  0  0  0  0  0  0  0
    4.5150    4.5000    0.0000 H   0  0  0  0  0  0  0  0  0  0  0  0
  1 17  1  0  0  0  0
  1 19  1  0  0  0  0
  2 21  1  0  0  0  0
  2 41  1  0  0  0  0
  3 16  2  0  0  0  0
  4 19  2  0  0  0  0
  5 24  2  0  0  0  0
  6 13  1  0  0  0  0
  6 24  1  0  0  0  0
  6 40  1  0  0  0  0
  7  8  2  0  0  0  0
  7 10  1  0  0  0  0
  7 18  1  0  0  0  0
  8 12  1  0  0  0  0
  8 19  1  0  0  0  0
  9 10  2  0  0  0  0
  9 14  1  0  0  0  0
  9 23  1  0  0  0  0
 10 26  1  0  0  0  0
 11 15  2  0  0  0  0
 11 16  1  0  0  0  0
 11 20  1  0  0  0  0
 12 14  2  0  0  0  0
 12 27  1  0  0  0  0
 13 15  1  0  0  0  0
 13 21  2  0  0  0  0
 14 28  1  0  0  0  0
 15 29  1  0  0  0  0
 16 17  1  0  0  0  0
 17 30  1  0  0  0  0
 17 31  1  0  0  0  0
 18 32  1  0  0  0  0
 18 33  1  0  0  0  0
 18 34  1  0  0  0  0
 20 22  2  0  0  0  0
 20 35  1  0  0  0  0
 21 22  1  0  0  0  0
 22 36  1  0  0  0  0
 23 37  1  0  0  0  0
 23 38  1  0  0  0  0
 23 39  1  0  0  0  0
 24 25  1  0  0  0  0
 25 42  1  0  0  0  0
 25 43  1  0  0  0  0
 25 44  1  0  0  0  0
M  END
> <PUBCHEM_COMPOUND_CID>
17396357

> <PUBCHEM_COMPOUND_CANONICALIZED>
1

> <PUBCHEM_CACTVS_COMPLEXITY>
506

> <PUBCHEM_CACTVS_HBOND_ACCEPTOR>
5

> <PUBCHEM_CACTVS_HBOND_DONOR>
2

> <PUBCHEM_CACTVS_ROTATABLE_BOND>
6

> <PUBCHEM_CACTVS_SUBSKEYS>
AAADceB6OAAAAAAAAAAAAAAAAAAAAAAAAAAwYAAAAAAAAAABQAAAHgAQCAAADAyhmAIyzoLABgCIAqXSWAKCAAAlIgAIiAFHbMgKJjLStZ+GcQhk1BHY+Yec3PPO4AACQAAQEADAAASAACAgAAAAAAAAAA==

> <PUBCHEM_IUPAC_OPENEYE_NAME>
[2-(3-acetamido-4-hydroxy-phenyl)-2-oxo-ethyl] 2,4-dimethylbenzoate

> <PUBCHEM_IUPAC_CAS_NAME>
2,4-dimethylbenzoic acid [2-(3-acetamido-4-hydroxyphenyl)-2-oxoethyl] ester

> <PUBCHEM_IUPAC_NAME>
[2-(3-acetamido-4-hydroxyphenyl)-2-oxoethyl] 2,4-dimethylbenzoate

> <PUBCHEM_IUPAC_SYSTEMATIC_NAME>
[2-(3-acetamido-4-oxidanyl-phenyl)-2-oxidanylidene-ethyl] 2,4-dimethylbenzoate

> <PUBCHEM_IUPAC_TRADITIONAL_NAME>
2,4-dimethylbenzoic acid [2-(3-acetamido-4-hydroxy-phenyl)-2-keto-ethyl] ester

> <PUBCHEM_IUPAC_INCHI>
InChI=1S/C19H19NO5/c1-11-4-6-15(12(2)8-11)19(24)25-10-18(23)14-5-7-17(22)16(9-14)20-13(3)21/h4-9,22H,10H2,1-3H3,(H,20,21)

> <PUBCHEM_IUPAC_INCHIKEY>
BLSUUDYPOMSWQZ-UHFFFAOYSA-N

> <PUBCHEM_XLOGP3_AA>
2.7

> <PUBCHEM_EXACT_MASS>
341.126323

> <PUBCHEM_MOLECULAR_FORMULA>
C19H19NO5

> <PUBCHEM_MOLECULAR_WEIGHT>
341.35786

> <PUBCHEM_OPENEYE_CAN_SMILES>
CC1=CC(=C(C=C1)C(=O)OCC(=O)C2=CC(=C(C=C2)O)NC(=O)C)C

> <PUBCHEM_OPENEYE_ISO_SMILES>
CC1=CC(=C(C=C1)C(=O)OCC(=O)C2=CC(=C(C=C2)O)NC(=O)C)C

> <PUBCHEM_CACTVS_TPSA>
92.7

> <PUBCHEM_MONOISOTOPIC_WEIGHT>
341.126323

> <PUBCHEM_TOTAL_CHARGE>
0

> <PUBCHEM_HEAVY_ATOM_COUNT>
25

> <PUBCHEM_ATOM_DEF_STEREO_COUNT>
0

> <PUBCHEM_ATOM_UDEF_STEREO_COUNT>
0

> <PUBCHEM_BOND_DEF_STEREO_COUNT>
0

> <PUBCHEM_BOND_UDEF_STEREO_COUNT>
0

> <PUBCHEM_ISOTOPIC_ATOM_COUNT>
0

> <PUBCHEM_COMPONENT_COUNT>
1

> <PUBCHEM_CACTVS_TAUTO_COUNT>
93

> <PUBCHEM_COORDINATE_TYPE>
1
5
255

> <PUBCHEM_BONDANNOTATIONS>
11  15  8
11  20  8
12  14  8
13  15  8
13  21  8
20  22  8
21  22  8
7  10  8
7  8  8
8  12  8
9  10  8
9  14  8

$$$$

