7698
  -OEChem-06261202153D

 26 26  0     0  0  0  0  0  0999 V2000
   -2.7166   -0.1709   -0.2987 O   0  0  0  0  0  0  0  0  0  0  0  0
   -4.4682   -0.3655    1.1950 O   0  0  0  0  0  0  0  0  0  0  0  0
    4.3287   -0.2406    1.1891 O   0  5  0  0  0  0  0  0  0  0  0  0
    3.9466   -1.6797   -0.4240 O   0  0  0  0  0  0  0  0  0  0  0  0
    3.6027   -0.6932    0.2711 N   0  3  0  0  0  0  0  0  0  0  0  0
   -1.4144    1.8060   -0.7697 C   0  0  0  0  0  0  0  0  0  0  0  0
   -0.1016    1.1529   -0.4979 C   0  0  0  0  0  0  0  0  0  0  0  0
   -2.5630    1.2006    0.0429 C   0  0  0  0  0  0  0  0  0  0  0  0
    0.7225    1.6391    0.5170 C   0  0  0  0  0  0  0  0  0  0  0  0
    0.3017    0.0552   -1.2583 C   0  0  0  0  0  0  0  0  0  0  0  0
    1.9500    1.0276    0.7714 C   0  0  0  0  0  0  0  0  0  0  0  0
    1.5293   -0.5564   -1.0038 C   0  0  0  0  0  0  0  0  0  0  0  0
    2.3535   -0.0701    0.0112 C   0  0  0  0  0  0  0  0  0  0  0  0
   -3.7133   -0.8395    0.3567 C   0  0  0  0  0  0  0  0  0  0  0  0
   -3.7578   -2.2655   -0.1020 C   0  0  0  0  0  0  0  0  0  0  0  0
   -1.6423    1.7185   -1.8401 H   0  0  0  0  0  0  0  0  0  0  0  0
   -1.3476    2.8811   -0.5616 H   0  0  0  0  0  0  0  0  0  0  0  0
   -3.4897    1.7390   -0.1879 H   0  0  0  0  0  0  0  0  0  0  0  0
   -2.3565    1.2899    1.1165 H   0  0  0  0  0  0  0  0  0  0  0  0
    0.4181    2.4923    1.1175 H   0  0  0  0  0  0  0  0  0  0  0  0
   -0.3306   -0.3338   -2.0521 H   0  0  0  0  0  0  0  0  0  0  0  0
    2.5657    1.4330    1.5704 H   0  0  0  0  0  0  0  0  0  0  0  0
    1.8107   -1.4095   -1.6159 H   0  0  0  0  0  0  0  0  0  0  0  0
   -2.8052   -2.7545    0.1166 H   0  0  0  0  0  0  0  0  0  0  0  0
   -3.9735   -2.3034   -1.1727 H   0  0  0  0  0  0  0  0  0  0  0  0
   -4.5518   -2.7944    0.4330 H   0  0  0  0  0  0  0  0  0  0  0  0
  1  8  1  0  0  0  0
  1 14  1  0  0  0  0
  2 14  2  0  0  0  0
  3  5  1  0  0  0  0
  4  5  2  0  0  0  0
  5 13  1  0  0  0  0
  6  7  1  0  0  0  0
  6  8  1  0  0  0  0
  6 16  1  0  0  0  0
  6 17  1  0  0  0  0
  7  9  2  0  0  0  0
  7 10  1  0  0  0  0
  8 18  1  0  0  0  0
  8 19  1  0  0  0  0
  9 11  1  0  0  0  0
  9 20  1  0  0  0  0
 10 12  2  0  0  0  0
 10 21  1  0  0  0  0
 11 13  2  0  0  0  0
 11 22  1  0  0  0  0
 12 13  1  0  0  0  0
 12 23  1  0  0  0  0
 14 15  1  0  0  0  0
 15 24  1  0  0  0  0
 15 25  1  0  0  0  0
 15 26  1  0  0  0  0
M  CHG  2   3  -1   5   1
M  END
> <PUBCHEM_COMPOUND_CID>
7698

> <PUBCHEM_CONFORMER_RMSD>
0.6

> <PUBCHEM_CONFORMER_DIVERSEORDER>
1
19
6
4
11
24
9
18
10
23
25
2
17
20
16
8
7
22
3
12
14
5
15
21
13

> <PUBCHEM_MMFF94_PARTIAL_CHARGES>
19
1 -0.43
10 -0.15
11 -0.15
12 -0.15
13 0.13
14 0.66
15 0.06
2 -0.57
20 0.15
21 0.15
22 0.15
23 0.15
3 -0.52
4 -0.52
5 0.91
6 0.14
7 -0.14
8 0.28
9 -0.15

> <PUBCHEM_EFFECTIVE_ROTOR_COUNT>
5

> <PUBCHEM_PHARMACOPHORE_FEATURES>
5
1 2 acceptor
1 3 acceptor
1 3 anion
1 4 acceptor
6 7 9 10 11 12 13 rings

> <PUBCHEM_HEAVY_ATOM_COUNT>
15

> <PUBCHEM_ATOM_DEF_STEREO_COUNT>
0

> <PUBCHEM_ATOM_UDEF_STEREO_COUNT>
0

> <PUBCHEM_BOND_DEF_STEREO_COUNT>
0

> <PUBCHEM_BOND_UDEF_STEREO_COUNT>
0

> <PUBCHEM_ISOTOPIC_ATOM_COUNT>
0

> <PUBCHEM_COMPONENT_COUNT>
1

> <PUBCHEM_CACTVS_TAUTO_COUNT>
1

> <PUBCHEM_CONFORMER_ID>
00001E1200000001

> <PUBCHEM_MMFF94_ENERGY>
33.8252

> <PUBCHEM_FEATURE_SELFOVERLAP>
25.453

> <PUBCHEM_SHAPE_FINGERPRINT>
11046707 91 18201721764572436423
11471102 22 17821729441985104605
11543360 7 17489015050704549948
11769659 78 17988648531570538372
12006461 19 18411418384538756147
12032990 46 18334575797791146220
12251169 10 17894914005598089661
12500047 106 18057054724865753253
12633257 1 17895461575658648843
12670546 177 13182727131107763531
12730499 353 10159701313570114733
14252887 29 17894347813213456694
14787075 74 18342459184635828712
15653759 3 18409732880347304425
17834072 32 8070024476067273091
200 152 15267066986255881676
201361 129 5906049223171031460
20281475 54 18410568483351170653
20361792 2 17489304145064208229
20621476 91 18197520475071984834
20645477 56 8430308078253768429
20671657 53 16559031575569486037
231179 274 5978112305992417027
232386 152 18271799112536125359
23402539 116 15913050979859723292
23402655 69 11959746957835456935
23500284 214 7060381457146706741
23559900 14 18195252341777285982
25 1 10231766607967296901
2748010 2 17098620386299198252
305870 269 6122508986172540757
568465 68 17603587426061307027
76465 3 18271816704442815691

> <PUBCHEM_SHAPE_MULTIPOLES>
280.23
8.12
1.93
1.08
1.5
0.22
-0.03
5.12
2.72
0.9
-0.14
-0.18
-0.05
0.45

> <PUBCHEM_SHAPE_SELFOVERLAP>
575.437

> <PUBCHEM_SHAPE_VOLUME>
161.4

> <PUBCHEM_COORDINATE_TYPE>
2
5
10

$$$$

