5724
  -OEChem-06261200502D

 37 39  0     0  0  0  0  0  0999 V2000
    2.0000   -0.0950    0.0000 Br  0  0  0  0  0  0  0  0  0  0  0  0
   10.7263   -0.1192    0.0000 Cl  0  0  0  0  0  0  0  0  0  0  0  0
    3.7320    2.9050    0.0000 F   0  0  0  0  0  0  0  0  0  0  0  0
    5.4641   -0.0950    0.0000 O   0  0  0  0  0  0  0  0  0  0  0  0
    7.1962    2.9050    0.0000 O   0  0  0  0  0  0  0  0  0  0  0  0
    6.3301   -2.5950    0.0000 O   0  0  0  0  0  0  0  0  0  0  0  0
    5.4641   -1.0950    0.0000 O   0  0  0  0  0  0  0  0  0  0  0  0
    6.3301    1.4050    0.0000 N   0  0  0  0  0  0  0  0  0  0  0  0
    7.1962   -0.0950    0.0000 N   0  0  0  0  0  0  0  0  0  0  0  0
    8.0622    0.4050    0.0000 C   0  0  0  0  0  0  0  0  0  0  0  0
    8.0622    1.4050    0.0000 C   0  0  0  0  0  0  0  0  0  0  0  0
    5.4641    1.9050    0.0000 C   0  0  0  0  0  0  0  0  0  0  0  0
    6.3301    0.4050    0.0000 C   0  0  0  0  0  0  0  0  0  0  0  0
    7.1962    1.9050    0.0000 C   0  0  0  0  0  0  0  0  0  0  0  0
    7.1962   -1.0950    0.0000 C   0  0  0  0  0  0  0  0  0  0  0  0
    4.5981    1.4050    0.0000 C   0  0  0  0  0  0  0  0  0  0  0  0
    8.9561   -0.1297    0.0000 C   0  0  0  0  0  0  0  0  0  0  0  0
    8.9561    1.9397    0.0000 C   0  0  0  0  0  0  0  0  0  0  0  0
    9.8622    0.3842    0.0000 C   0  0  0  0  0  0  0  0  0  0  0  0
    9.8622    1.4258    0.0000 C   0  0  0  0  0  0  0  0  0  0  0  0
    3.7320    1.9050    0.0000 C   0  0  0  0  0  0  0  0  0  0  0  0
    4.5981    0.4050    0.0000 C   0  0  0  0  0  0  0  0  0  0  0  0
    6.3301   -1.5950    0.0000 C   0  0  0  0  0  0  0  0  0  0  0  0
    2.8660    1.4050    0.0000 C   0  0  0  0  0  0  0  0  0  0  0  0
    3.7320   -0.0950    0.0000 C   0  0  0  0  0  0  0  0  0  0  0  0
    2.8660    0.4050    0.0000 C   0  0  0  0  0  0  0  0  0  0  0  0
    5.8626    2.3800    0.0000 H   0  0  0  0  0  0  0  0  0  0  0  0
    5.0656    2.3800    0.0000 H   0  0  0  0  0  0  0  0  0  0  0  0
    7.4082   -1.6776    0.0000 H   0  0  0  0  0  0  0  0  0  0  0  0
    7.8067   -0.9873    0.0000 H   0  0  0  0  0  0  0  0  0  0  0  0
    8.9490   -0.7496    0.0000 H   0  0  0  0  0  0  0  0  0  0  0  0
    8.9490    2.5596    0.0000 H   0  0  0  0  0  0  0  0  0  0  0  0
   10.3979    1.7379    0.0000 H   0  0  0  0  0  0  0  0  0  0  0  0
    5.1350    0.0950    0.0000 H   0  0  0  0  0  0  0  0  0  0  0  0
    2.3291    1.7150    0.0000 H   0  0  0  0  0  0  0  0  0  0  0  0
    3.7320   -0.7150    0.0000 H   0  0  0  0  0  0  0  0  0  0  0  0
    5.7932   -2.9050    0.0000 H   0  0  0  0  0  0  0  0  0  0  0  0
  1 26  1  0  0  0  0
  2 19  1  0  0  0  0
  3 21  1  0  0  0  0
  4 13  2  0  0  0  0
  5 14  2  0  0  0  0
  6 23  1  0  0  0  0
  6 37  1  0  0  0  0
  7 23  2  0  0  0  0
  8 12  1  0  0  0  0
  8 13  1  0  0  0  0
  8 14  1  0  0  0  0
  9 10  1  0  0  0  0
  9 13  1  0  0  0  0
  9 15  1  0  0  0  0
 10 11  2  0  0  0  0
 10 17  1  0  0  0  0
 11 14  1  0  0  0  0
 11 18  1  0  0  0  0
 12 16  1  0  0  0  0
 12 27  1  0  0  0  0
 12 28  1  0  0  0  0
 15 23  1  0  0  0  0
 15 29  1  0  0  0  0
 15 30  1  0  0  0  0
 16 21  2  0  0  0  0
 16 22  1  0  0  0  0
 17 19  2  0  0  0  0
 17 31  1  0  0  0  0
 18 20  2  0  0  0  0
 18 32  1  0  0  0  0
 19 20  1  0  0  0  0
 20 33  1  0  0  0  0
 21 24  1  0  0  0  0
 22 25  2  0  0  0  0
 22 34  1  0  0  0  0
 24 26  2  0  0  0  0
 24 35  1  0  0  0  0
 25 26  1  0  0  0  0
 25 36  1  0  0  0  0
M  END
> <PUBCHEM_COMPOUND_CID>
5724

> <PUBCHEM_COMPOUND_CANONICALIZED>
1

> <PUBCHEM_CACTVS_COMPLEXITY>
595

> <PUBCHEM_CACTVS_HBOND_ACCEPTOR>
5

> <PUBCHEM_CACTVS_HBOND_DONOR>
1

> <PUBCHEM_CACTVS_ROTATABLE_BOND>
4

> <PUBCHEM_CACTVS_SUBSKEYS>
AAADccB7OQAEEAAAAAAAAAAAAAAAAAAAAAA8YIAAAAAAAACxQAAAHwJACAABrArBmCwxyIMAAgCIAiXSWACCAAAlBwQIiAGIZuiKIDrB17GEIYhohyLYy/cYiACOBgAAAAICAAAMAAAABAQAAAAAAAAAAA==

> <PUBCHEM_IUPAC_OPENEYE_NAME>
2-[3-[(4-bromo-2-fluoro-phenyl)methyl]-7-chloro-2,4-dioxo-quinazolin-1-yl]acetic acid

> <PUBCHEM_IUPAC_CAS_NAME>
2-[3-[(4-bromo-2-fluorophenyl)methyl]-7-chloro-2,4-dioxo-1-quinazolinyl]acetic acid

> <PUBCHEM_IUPAC_NAME>
2-[3-[(4-bromo-2-fluorophenyl)methyl]-7-chloro-2,4-dioxoquinazolin-1-yl]acetic acid

> <PUBCHEM_IUPAC_SYSTEMATIC_NAME>
2-[3-[(4-bromanyl-2-fluoranyl-phenyl)methyl]-7-chloranyl-2,4-bis(oxidanylidene)quinazolin-1-yl]ethanoic acid

> <PUBCHEM_IUPAC_TRADITIONAL_NAME>
2-[3-(4-bromo-2-fluoro-benzyl)-7-chloro-2,4-diketo-quinazolin-1-yl]acetic acid

> <PUBCHEM_IUPAC_INCHI>
InChI=1S/C17H11BrClFN2O4/c18-10-2-1-9(13(20)5-10)7-22-16(25)12-4-3-11(19)6-14(12)21(17(22)26)8-15(23)24/h1-6H,7-8H2,(H,23,24)

> <PUBCHEM_IUPAC_INCHIKEY>
SXONDGSPUVNZLO-UHFFFAOYSA-N

> <PUBCHEM_XLOGP3_AA>
3.3

> <PUBCHEM_EXACT_MASS>
439.957475

> <PUBCHEM_MOLECULAR_FORMULA>
C17H11BrClFN2O4

> <PUBCHEM_MOLECULAR_WEIGHT>
441.635643

> <PUBCHEM_OPENEYE_CAN_SMILES>
C1=CC2=C(C=C1Cl)N(C(=O)N(C2=O)CC3=C(C=C(C=C3)Br)F)CC(=O)O

> <PUBCHEM_OPENEYE_ISO_SMILES>
C1=CC2=C(C=C1Cl)N(C(=O)N(C2=O)CC3=C(C=C(C=C3)Br)F)CC(=O)O

> <PUBCHEM_CACTVS_TPSA>
77.9

> <PUBCHEM_MONOISOTOPIC_WEIGHT>
439.957475

> <PUBCHEM_TOTAL_CHARGE>
0

> <PUBCHEM_HEAVY_ATOM_COUNT>
26

> <PUBCHEM_ATOM_DEF_STEREO_COUNT>
0

> <PUBCHEM_ATOM_UDEF_STEREO_COUNT>
0

> <PUBCHEM_BOND_DEF_STEREO_COUNT>
0

> <PUBCHEM_BOND_UDEF_STEREO_COUNT>
0

> <PUBCHEM_ISOTOPIC_ATOM_COUNT>
0

> <PUBCHEM_COMPONENT_COUNT>
1

> <PUBCHEM_CACTVS_TAUTO_COUNT>
1

> <PUBCHEM_COORDINATE_TYPE>
1
5
255

> <PUBCHEM_BONDANNOTATIONS>
10  11  8
10  17  8
11  14  8
11  18  8
16  21  8
16  22  8
17  19  8
18  20  8
19  20  8
21  24  8
22  25  8
24  26  8
25  26  8
8  13  8
8  14  8
9  10  8
9  13  8

$$$$

