13513
  -OEChem-06241222392D

 13 12  0     0  0  0  0  0  0999 V2000
    2.0000   -0.6270    0.0000 Cl  0  0  0  0  0  0  0  0  0  0  0  0
    4.5981   -0.1270    0.0000 O   0  0  0  0  0  0  0  0  0  0  0  0
    2.8660   -0.1270    0.0000 C   0  0  0  0  0  0  0  0  0  0  0  0
    2.3660    0.7390    0.0000 C   0  0  0  0  0  0  0  0  0  0  0  0
    3.3660   -0.9930    0.0000 C   0  0  0  0  0  0  0  0  0  0  0  0
    3.7320    0.3730    0.0000 C   0  0  0  0  0  0  0  0  0  0  0  0
    2.9030    1.0490    0.0000 H   0  0  0  0  0  0  0  0  0  0  0  0
    2.0560    1.2760    0.0000 H   0  0  0  0  0  0  0  0  0  0  0  0
    1.8291    0.4290    0.0000 H   0  0  0  0  0  0  0  0  0  0  0  0
    2.8291   -1.3030    0.0000 H   0  0  0  0  0  0  0  0  0  0  0  0
    3.6760   -1.5300    0.0000 H   0  0  0  0  0  0  0  0  0  0  0  0
    3.9030   -0.6830    0.0000 H   0  0  0  0  0  0  0  0  0  0  0  0
    3.7320    0.9930    0.0000 H   0  0  0  0  0  0  0  0  0  0  0  0
  1  3  1  0  0  0  0
  2  6  2  0  0  0  0
  3  4  1  0  0  0  0
  3  5  1  0  0  0  0
  3  6  1  0  0  0  0
  4  7  1  0  0  0  0
  4  8  1  0  0  0  0
  4  9  1  0  0  0  0
  5 10  1  0  0  0  0
  5 11  1  0  0  0  0
  5 12  1  0  0  0  0
  6 13  1  0  0  0  0
M  END
> <PUBCHEM_COMPOUND_CID>
13513

> <PUBCHEM_COMPOUND_CANONICALIZED>
1

> <PUBCHEM_CACTVS_COMPLEXITY>
58.6

> <PUBCHEM_CACTVS_HBOND_ACCEPTOR>
1

> <PUBCHEM_CACTVS_HBOND_DONOR>
0

> <PUBCHEM_CACTVS_ROTATABLE_BOND>
1

> <PUBCHEM_CACTVS_SUBSKEYS>
AAADcYBgIAAEAAAAAAAAAAAAAAAAAAAAAAAAAAAAAAAAAAAAAAAAGgIAAAAADAKggAICAAAAAAAIAAgQgAAAAAAAAAAAAAEAAABAAAAAAAAAAAAAAAAAAAAAAAAAAAAAAAAAAAAAAAAAAAAAAAAAAAAAAA==

> <PUBCHEM_IUPAC_OPENEYE_NAME>
2-chloro-2-methyl-propanal

> <PUBCHEM_IUPAC_CAS_NAME>
2-chloro-2-methylpropanal

> <PUBCHEM_IUPAC_NAME>
2-chloro-2-methylpropanal

> <PUBCHEM_IUPAC_SYSTEMATIC_NAME>
2-chloranyl-2-methyl-propanal

> <PUBCHEM_IUPAC_TRADITIONAL_NAME>
2-chloro-2-methyl-propionaldehyde

> <PUBCHEM_IUPAC_INCHI>
InChI=1S/C4H7ClO/c1-4(2,5)3-6/h3H,1-2H3

> <PUBCHEM_IUPAC_INCHIKEY>
UJZCIPIWDBMTLY-UHFFFAOYSA-N

> <PUBCHEM_XLOGP3_AA>
0.9

> <PUBCHEM_EXACT_MASS>
106.018543

> <PUBCHEM_MOLECULAR_FORMULA>
C4H7ClO

> <PUBCHEM_MOLECULAR_WEIGHT>
106.55078

> <PUBCHEM_OPENEYE_CAN_SMILES>
CC(C)(C=O)Cl

> <PUBCHEM_OPENEYE_ISO_SMILES>
CC(C)(C=O)Cl

> <PUBCHEM_CACTVS_TPSA>
17.1

> <PUBCHEM_MONOISOTOPIC_WEIGHT>
106.018543

> <PUBCHEM_TOTAL_CHARGE>
0

> <PUBCHEM_HEAVY_ATOM_COUNT>
6

> <PUBCHEM_ATOM_DEF_STEREO_COUNT>
0

> <PUBCHEM_ATOM_UDEF_STEREO_COUNT>
0

> <PUBCHEM_BOND_DEF_STEREO_COUNT>
0

> <PUBCHEM_BOND_UDEF_STEREO_COUNT>
0

> <PUBCHEM_ISOTOPIC_ATOM_COUNT>
0

> <PUBCHEM_COMPONENT_COUNT>
1

> <PUBCHEM_CACTVS_TAUTO_COUNT>
1

> <PUBCHEM_COORDINATE_TYPE>
1
5
255

$$$$

