7846936
  -OEChem-06241222473D

 45 48  0     0  0  0  0  0  0999 V2000
    4.3164    0.2163    0.5801 S   0  0  0  0  0  0  0  0  0  0  0  0
    1.0251   -1.9947    0.8206 O   0  0  0  0  0  0  0  0  0  0  0  0
   -0.3532   -0.3608    2.5057 O   0  0  0  0  0  0  0  0  0  0  0  0
    1.0217   -3.8026   -0.6125 O   0  0  0  0  0  0  0  0  0  0  0  0
   -3.3507    1.8793    0.5190 N   0  0  0  0  0  0  0  0  0  0  0  0
    2.6110   -0.3306   -1.2759 N   0  0  0  0  0  0  0  0  0  0  0  0
   -2.0099    0.1540    0.9096 C   0  0  0  0  0  0  0  0  0  0  0  0
   -3.0753   -0.2902    0.0775 C   0  0  0  0  0  0  0  0  0  0  0  0
   -3.9022    0.8115   -0.1526 C   0  0  0  0  0  0  0  0  0  0  0  0
   -2.2070    1.4917    1.1640 C   0  0  0  0  0  0  0  0  0  0  0  0
   -0.9077   -0.6167    1.4138 C   0  0  0  0  0  0  0  0  0  0  0  0
   -3.4166   -1.5274   -0.5040 C   0  0  0  0  0  0  0  0  0  0  0  0
   -5.0580    0.7373   -0.9382 C   0  0  0  0  0  0  0  0  0  0  0  0
   -1.4221    2.4563    1.9595 C   0  0  0  0  0  0  0  0  0  0  0  0
    3.9197   -2.2802   -0.5097 C   0  0  0  0  0  0  0  0  0  0  0  0
   -0.3613   -1.8097    0.6097 C   0  0  0  0  0  0  0  0  0  0  0  0
    3.0802   -3.0968    0.4741 C   0  0  0  0  0  0  0  0  0  0  0  0
   -4.5696   -1.6165   -1.2923 C   0  0  0  0  0  0  0  0  0  0  0  0
   -5.3762   -0.5003   -1.5047 C   0  0  0  0  0  0  0  0  0  0  0  0
    3.5248   -0.8257   -0.5002 C   0  0  0  0  0  0  0  0  0  0  0  0
    3.3541    1.5143   -0.0216 C   0  0  0  0  0  0  0  0  0  0  0  0
    2.4972    1.0267   -1.0130 C   0  0  0  0  0  0  0  0  0  0  0  0
    1.6061   -3.0387    0.1433 C   0  0  0  0  0  0  0  0  0  0  0  0
    3.3572    2.8666    0.3565 C   0  0  0  0  0  0  0  0  0  0  0  0
    1.6132    1.9266   -1.6469 C   0  0  0  0  0  0  0  0  0  0  0  0
    2.4725    3.7360   -0.2865 C   0  0  0  0  0  0  0  0  0  0  0  0
    1.6110    3.2742   -1.2754 C   0  0  0  0  0  0  0  0  0  0  0  0
   -3.7387    2.8126    0.5311 H   0  0  0  0  0  0  0  0  0  0  0  0
   -2.8207   -2.4204   -0.3500 H   0  0  0  0  0  0  0  0  0  0  0  0
   -5.6866    1.6057   -1.1040 H   0  0  0  0  0  0  0  0  0  0  0  0
   -1.5226    2.2425    3.0283 H   0  0  0  0  0  0  0  0  0  0  0  0
   -0.3608    2.4038    1.6956 H   0  0  0  0  0  0  0  0  0  0  0  0
   -1.7521    3.4868    1.7907 H   0  0  0  0  0  0  0  0  0  0  0  0
    4.9842   -2.3995   -0.2760 H   0  0  0  0  0  0  0  0  0  0  0  0
    3.7754   -2.6696   -1.5256 H   0  0  0  0  0  0  0  0  0  0  0  0
   -0.5221   -1.6194   -0.4568 H   0  0  0  0  0  0  0  0  0  0  0  0
   -0.9061   -2.7047    0.9288 H   0  0  0  0  0  0  0  0  0  0  0  0
    3.2302   -2.7622    1.5076 H   0  0  0  0  0  0  0  0  0  0  0  0
    3.3857   -4.1492    0.4468 H   0  0  0  0  0  0  0  0  0  0  0  0
   -4.8397   -2.5688   -1.7410 H   0  0  0  0  0  0  0  0  0  0  0  0
   -6.2677   -0.5922   -2.1197 H   0  0  0  0  0  0  0  0  0  0  0  0
    4.0268    3.2341    1.1281 H   0  0  0  0  0  0  0  0  0  0  0  0
    0.9347    1.5762   -2.4196 H   0  0  0  0  0  0  0  0  0  0  0  0
    2.4582    4.7865   -0.0084 H   0  0  0  0  0  0  0  0  0  0  0  0
    0.9287    3.9648   -1.7636 H   0  0  0  0  0  0  0  0  0  0  0  0
  1 20  1  0  0  0  0
  1 21  1  0  0  0  0
  2 16  1  0  0  0  0
  2 23  1  0  0  0  0
  3 11  2  0  0  0  0
  4 23  2  0  0  0  0
  5  9  1  0  0  0  0
  5 10  1  0  0  0  0
  5 28  1  0  0  0  0
  6 20  2  0  0  0  0
  6 22  1  0  0  0  0
  7  8  1  0  0  0  0
  7 10  2  0  0  0  0
  7 11  1  0  0  0  0
  8  9  1  0  0  0  0
  8 12  2  0  0  0  0
  9 13  2  0  0  0  0
 10 14  1  0  0  0  0
 11 16  1  0  0  0  0
 12 18  1  0  0  0  0
 12 29  1  0  0  0  0
 13 19  1  0  0  0  0
 13 30  1  0  0  0  0
 14 31  1  0  0  0  0
 14 32  1  0  0  0  0
 14 33  1  0  0  0  0
 15 17  1  0  0  0  0
 15 20  1  0  0  0  0
 15 34  1  0  0  0  0
 15 35  1  0  0  0  0
 16 36  1  0  0  0  0
 16 37  1  0  0  0  0
 17 23  1  0  0  0  0
 17 38  1  0  0  0  0
 17 39  1  0  0  0  0
 18 19  2  0  0  0  0
 18 40  1  0  0  0  0
 19 41  1  0  0  0  0
 21 22  1  0  0  0  0
 21 24  2  0  0  0  0
 22 25  2  0  0  0  0
 24 26  1  0  0  0  0
 24 42  1  0  0  0  0
 25 27  1  0  0  0  0
 25 43  1  0  0  0  0
 26 27  2  0  0  0  0
 26 44  1  0  0  0  0
 27 45  1  0  0  0  0
M  END
> <PUBCHEM_COMPOUND_CID>
7846936

> <PUBCHEM_CONFORMER_RMSD>
1.2

> <PUBCHEM_CONFORMER_DIVERSEORDER>
1
13
183
5
156
6
178
197
39
185
114
199
97
174
170
74
20
164
173
147
127
83
69
214
62
210
34
179
192
72
32
25
23
195
188
144
211
11
137
141
225
108
218
27
52
101
106
100
7
126
205
134
206
234
4
61
131
207
157
120
235
162
135
177
115
224
149
216
176
142
26
3
63
21
56
12
60
22
191
118
189
68
232
51
182
139
30
138
9
10
49
222
14
107
73
167
57
77
54
169
125
42
94
140
55
190
50
70
133
81
87
119
215
98
223
194
71
8
85
145
159
102
80
204
16
124
148
64
59
17
65
76
132
24
128
231
226
90
36
82
29
112
161
165
220
2
45
154
96
196
166
117
151
92
143
175
84
18
123
230
47
86
58
33
227
99
219
198
79
15
221
163
160
212
180
88
146
168
53
43
75
67
202
136
41
208
121
193
35
116
104
213
184
38
44
111
95
103
40
187
93
37
31
152
130
48
172
66
181
78
105
19
109
155
186
200
122
217
89
201
28
203
46
209
129
113
233
150
153
110
158
91
228
229
171

> <PUBCHEM_MMFF94_PARTIAL_CHARGES>
35
1 -0.08
10 -0.33
11 0.6
12 -0.15
13 -0.15
14 0.18
15 0.18
16 0.34
17 0.06
18 -0.15
19 -0.15
2 -0.43
20 0.2
21 0.04
22 0.23
23 0.66
24 -0.15
25 -0.15
26 -0.15
27 -0.15
28 0.27
29 0.15
3 -0.57
30 0.15
4 -0.57
40 0.15
41 0.15
42 0.15
43 0.15
44 0.15
45 0.15
5 0.03
6 -0.57
7 -0.09
9 -0.15

> <PUBCHEM_EFFECTIVE_ROTOR_COUNT>
7

> <PUBCHEM_PHARMACOPHORE_FEATURES>
9
1 3 acceptor
1 4 acceptor
1 5 cation
1 5 donor
1 6 acceptor
5 1 6 20 21 22 rings
5 5 7 8 9 10 rings
6 21 22 24 25 26 27 rings
6 8 9 12 13 18 19 rings

> <PUBCHEM_HEAVY_ATOM_COUNT>
27

> <PUBCHEM_ATOM_DEF_STEREO_COUNT>
0

> <PUBCHEM_ATOM_UDEF_STEREO_COUNT>
0

> <PUBCHEM_BOND_DEF_STEREO_COUNT>
0

> <PUBCHEM_BOND_UDEF_STEREO_COUNT>
0

> <PUBCHEM_ISOTOPIC_ATOM_COUNT>
0

> <PUBCHEM_COMPONENT_COUNT>
1

> <PUBCHEM_CACTVS_TAUTO_COUNT>
16

> <PUBCHEM_CONFORMER_ID>
0077BC1800000001

> <PUBCHEM_MMFF94_ENERGY>
47.6817

> <PUBCHEM_FEATURE_SELFOVERLAP>
45.834

> <PUBCHEM_SHAPE_FINGERPRINT>
11370993 70 18196655090306055652
12156800 1 15894260029255804852
12467345 10 18333739021855163223
13617811 41 18120674444071780941
13761468 95 16256412698605474396
14068700 675 18187085100655060352
14251757 17 18058469736264475757
14468879 13 17843397375952286033
18681886 176 18335148621838399690
192875 21 18409445877884794872
19319366 153 18264504892395563999
19930381 70 18339923714674032637
20511986 3 17968392168802035981
20567600 299 18338795723155020636
20642791 105 17691134734159277026
20715895 44 18341625776053944885
20764821 26 16464180783428511335
2132832 1 18263375839686339091
21860390 5 18410850005963360494
22749437 52 18341041909367289784
23559900 14 18409733949688451857
238 59 18339630145153728066
25265897 201 17246367261064995861
3493558 16 16910882795698370367
4366758 6 17976845111180673840
463206 1 18115592513485393935
474 4 18343021073141477426
508706 21 17346034605799554005
574716 61 18410018745223632255
6669772 16 17464276932143117977
9981440 41 17980200790561274848

> <PUBCHEM_SHAPE_MULTIPOLES>
531.93
9.93
4.43
1.64
8.26
0.26
0.41
0.11
-3.61
-4.81
-0.31
0.75
-0.51
-1.25

> <PUBCHEM_SHAPE_SELFOVERLAP>
1156.837

> <PUBCHEM_SHAPE_VOLUME>
291.7

> <PUBCHEM_COORDINATE_TYPE>
2
5
10

$$$$

