4975
  -OEChem-06261200272D

120126  0     1  0  0  0  0  0999 V2000
    4.8406    0.4900    0.0000 O   0  0  0  0  0  0  0  0  0  0  0  0
    5.9059    2.7190    0.0000 O   0  0  0  0  0  0  0  0  0  0  0  0
    4.2041    2.2715    0.0000 O   0  0  0  0  0  0  0  0  0  0  0  0
    3.1745   -0.9683    0.0000 O   0  0  0  0  0  0  0  0  0  0  0  0
    3.3982    0.9491    0.0000 O   0  0  0  0  0  0  0  0  0  0  0  0
    5.9059    3.7190    0.0000 O   0  0  0  0  0  0  0  0  0  0  0  0
    4.0300   -2.7689    0.0000 O   0  0  0  0  0  0  0  0  0  0  0  0
    7.6379    4.7190    0.0000 O   0  0  0  0  0  0  0  0  0  0  0  0
    9.8878    4.6254    0.0000 O   0  0  0  0  0  0  0  0  0  0  0  0
    5.2371    3.6618    0.0000 O   0  0  0  0  0  0  0  0  0  0  0  0
    3.5844    2.6711    0.0000 O   0  0  0  0  0  0  0  0  0  0  0  0
    6.7719    5.2190    0.0000 O   0  0  0  0  0  0  0  0  0  0  0  0
    5.4361   -3.7804    0.0000 O   0  0  0  0  0  0  0  0  0  0  0  0
    4.6689   -5.0763    0.0000 O   0  0  0  0  0  0  0  0  0  0  0  0
    3.6842   -6.2157    0.0000 O   0  0  0  0  0  0  0  0  0  0  0  0
   10.3039    2.1982    0.0000 N   0  0  3  0  0  0  0  0  0  0  0  0
    6.4400    0.6441    0.0000 C   0  0  3  0  0  0  0  0  0  0  0  0
    5.8451   -0.2034    0.0000 C   0  0  3  0  0  0  0  0  0  0  0  0
    6.0349    1.5519    0.0000 C   0  0  3  0  0  0  0  0  0  0  0  0
    6.7719    2.2190    0.0000 C   0  0  3  0  0  0  0  0  0  0  0  0
    7.6379    1.7190    0.0000 C   0  0  3  0  0  0  0  0  0  0  0  0
    4.8144   -0.1040    0.0000 C   0  0  3  0  0  0  0  0  0  0  0  0
    7.4287    0.7472    0.0000 C   0  0  0  0  0  0  0  0  0  0  0  0
    4.1745   -0.9722    0.0000 C   0  0  3  0  0  0  0  0  0  0  0  0
    5.0068    1.6751    0.0000 C   0  0  3  0  0  0  0  0  0  0  0  0
    8.5039    2.2190    0.0000 C   0  0  3  0  0  0  0  0  0  0  0  0
    4.3924    0.8416    0.0000 C   0  0  3  0  0  0  0  0  0  0  0  0
    6.3073   -1.1779    0.0000 C   0  0  0  0  0  0  0  0  0  0  0  0
    6.7719    3.2190    0.0000 C   0  0  3  0  0  0  0  0  0  0  0  0
    8.5039    3.2190    0.0000 C   0  0  3  0  0  0  0  0  0  0  0  0
    4.6140   -1.9571    0.0000 C   0  0  3  0  0  0  0  0  0  0  0  0
    7.6379    3.7190    0.0000 C   0  0  3  0  0  0  0  0  0  0  0  0
    6.8405   -0.2994    0.0000 C   0  0  0  0  0  0  0  0  0  0  0  0
    5.6876   -2.0607    0.0000 C   0  0  0  0  0  0  0  0  0  0  0  0
    9.3979    3.7537    0.0000 C   0  0  3  0  0  0  0  0  0  0  0  0
    9.3979    1.6844    0.0000 C   0  0  0  0  0  0  0  0  0  0  0  0
   10.3039    3.2398    0.0000 C   0  0  3  0  0  0  0  0  0  0  0  0
    8.8879    4.6139    0.0000 C   0  0  0  0  0  0  0  0  0  0  0  0
   11.2351    3.7968    0.0000 C   0  0  0  0  0  0  0  0  0  0  0  0
   11.2351    1.6413    0.0000 C   0  0  0  0  0  0  0  0  0  0  0  0
   12.1789    2.1765    0.0000 C   0  0  3  0  0  0  0  0  0  0  0  0
   12.1789    3.2615    0.0000 C   0  0  0  0  0  0  0  0  0  0  0  0
    4.3192    3.2649    0.0000 C   0  0  0  0  0  0  0  0  0  0  0  0
    2.9942    1.8639    0.0000 C   0  0  0  0  0  0  0  0  0  0  0  0
    5.9059    4.7190    0.0000 C   0  0  0  0  0  0  0  0  0  0  0  0
    4.4411   -3.6805    0.0000 C   0  0  0  0  0  0  0  0  0  0  0  0
   13.0430    1.6732    0.0000 C   0  0  0  0  0  0  0  0  0  0  0  0
    5.0398    5.2190    0.0000 C   0  0  3  0  0  0  0  0  0  0  0  0
    3.5166    3.8613    0.0000 C   0  0  0  0  0  0  0  0  0  0  0  0
    2.0000    1.9714    0.0000 C   0  0  0  0  0  0  0  0  0  0  0  0
    3.8571   -4.4923    0.0000 C   0  0  3  0  0  0  0  0  0  0  0  0
    5.0398    6.2190    0.0000 C   0  0  0  0  0  0  0  0  0  0  0  0
    4.1738    4.7190    0.0000 C   0  0  0  0  0  0  0  0  0  0  0  0
    3.2732   -5.3041    0.0000 C   0  0  3  0  0  0  0  0  0  0  0  0
    3.0454   -3.9084    0.0000 C   0  0  0  0  0  0  0  0  0  0  0  0
    4.1738    6.7190    0.0000 C   0  0  0  0  0  0  0  0  0  0  0  0
    2.2782   -5.2043    0.0000 C   0  0  0  0  0  0  0  0  0  0  0  0
    5.7770    2.3619    0.0000 H   0  0  0  0  0  0  0  0  0  0  0  0
    8.3249    1.2185    0.0000 H   0  0  0  0  0  0  0  0  0  0  0  0
    5.3108    0.5861    0.0000 H   0  0  0  0  0  0  0  0  0  0  0  0
    7.4278    0.1272    0.0000 H   0  0  0  0  0  0  0  0  0  0  0  0
    8.0452    0.6811    0.0000 H   0  0  0  0  0  0  0  0  0  0  0  0
    5.3214    2.4648    0.0000 H   0  0  0  0  0  0  0  0  0  0  0  0
    8.4974    1.3690    0.0000 H   0  0  0  0  0  0  0  0  0  0  0  0
    3.8921    0.1545    0.0000 H   0  0  0  0  0  0  0  0  0  0  0  0
    6.7463   -1.6157    0.0000 H   0  0  0  0  0  0  0  0  0  0  0  0
    6.8137   -0.8202    0.0000 H   0  0  0  0  0  0  0  0  0  0  0  0
    6.7719    4.0690    0.0000 H   0  0  0  0  0  0  0  0  0  0  0  0
    8.4974    4.0690    0.0000 H   0  0  0  0  0  0  0  0  0  0  0  0
    4.9649   -2.7313    0.0000 H   0  0  0  0  0  0  0  0  0  0  0  0
    8.3740    4.1440    0.0000 H   0  0  0  0  0  0  0  0  0  0  0  0
    6.7809   -0.9165    0.0000 H   0  0  0  0  0  0  0  0  0  0  0  0
    7.4576   -0.3589    0.0000 H   0  0  0  0  0  0  0  0  0  0  0  0
    6.9000    0.3178    0.0000 H   0  0  0  0  0  0  0  0  0  0  0  0
    5.5234   -2.6585    0.0000 H   0  0  0  0  0  0  0  0  0  0  0  0
    6.2485   -2.3248    0.0000 H   0  0  0  0  0  0  0  0  0  0  0  0
    8.9933    1.2146    0.0000 H   0  0  0  0  0  0  0  0  0  0  0  0
    9.7915    1.2053    0.0000 H   0  0  0  0  0  0  0  0  0  0  0  0
    5.3689    2.4090    0.0000 H   0  0  0  0  0  0  0  0  0  0  0  0
   10.2941    4.0898    0.0000 H   0  0  0  0  0  0  0  0  0  0  0  0
    2.8624   -1.5040    0.0000 H   0  0  0  0  0  0  0  0  0  0  0  0
    9.4212    4.9300    0.0000 H   0  0  0  0  0  0  0  0  0  0  0  0
    8.5717    5.1472    0.0000 H   0  0  0  0  0  0  0  0  0  0  0  0
    8.3546    4.2977    0.0000 H   0  0  0  0  0  0  0  0  0  0  0  0
   11.6287    4.2758    0.0000 H   0  0  0  0  0  0  0  0  0  0  0  0
   10.8305    4.2665    0.0000 H   0  0  0  0  0  0  0  0  0  0  0  0
   10.8305    1.1715    0.0000 H   0  0  0  0  0  0  0  0  0  0  0  0
   11.6287    1.1623    0.0000 H   0  0  0  0  0  0  0  0  0  0  0  0
    8.1748    5.0290    0.0000 H   0  0  0  0  0  0  0  0  0  0  0  0
    9.5716    5.1587    0.0000 H   0  0  0  0  0  0  0  0  0  0  0  0
   12.1740    1.3265    0.0000 H   0  0  0  0  0  0  0  0  0  0  0  0
   12.7897    3.1554    0.0000 H   0  0  0  0  0  0  0  0  0  0  0  0
   12.3879    3.8452    0.0000 H   0  0  0  0  0  0  0  0  0  0  0  0
   12.7309    1.1374    0.0000 H   0  0  0  0  0  0  0  0  0  0  0  0
   13.5787    1.3611    0.0000 H   0  0  0  0  0  0  0  0  0  0  0  0
   13.3550    2.2089    0.0000 H   0  0  0  0  0  0  0  0  0  0  0  0
    4.3037    5.6440    0.0000 H   0  0  0  0  0  0  0  0  0  0  0  0
    3.8863    4.3590    0.0000 H   0  0  0  0  0  0  0  0  0  0  0  0
    3.0189    4.2311    0.0000 H   0  0  0  0  0  0  0  0  0  0  0  0
    3.1468    3.3636    0.0000 H   0  0  0  0  0  0  0  0  0  0  0  0
    2.0666    2.5878    0.0000 H   0  0  0  0  0  0  0  0  0  0  0  0
    1.3836    2.0380    0.0000 H   0  0  0  0  0  0  0  0  0  0  0  0
    1.9334    1.3550    0.0000 H   0  0  0  0  0  0  0  0  0  0  0  0
    5.6504    6.1114    0.0000 H   0  0  0  0  0  0  0  0  0  0  0  0
    5.2519    6.8016    0.0000 H   0  0  0  0  0  0  0  0  0  0  0  0
    3.8638    5.2560    0.0000 H   0  0  0  0  0  0  0  0  0  0  0  0
    3.6369    4.4090    0.0000 H   0  0  0  0  0  0  0  0  0  0  0  0
    4.4838    4.1821    0.0000 H   0  0  0  0  0  0  0  0  0  0  0  0
    4.1189   -5.3890    0.0000 H   0  0  0  0  0  0  0  0  0  0  0  0
    3.4074   -3.4050    0.0000 H   0  0  0  0  0  0  0  0  0  0  0  0
    2.5420   -3.5463    0.0000 H   0  0  0  0  0  0  0  0  0  0  0  0
    2.6833   -4.4116    0.0000 H   0  0  0  0  0  0  0  0  0  0  0  0
    4.6070   -5.6932    0.0000 H   0  0  0  0  0  0  0  0  0  0  0  0
    4.4838    7.2560    0.0000 H   0  0  0  0  0  0  0  0  0  0  0  0
    3.6369    7.0290    0.0000 H   0  0  0  0  0  0  0  0  0  0  0  0
    3.8638    6.1821    0.0000 H   0  0  0  0  0  0  0  0  0  0  0  0
    2.3401   -4.5874    0.0000 H   0  0  0  0  0  0  0  0  0  0  0  0
    1.6613   -5.1424    0.0000 H   0  0  0  0  0  0  0  0  0  0  0  0
    2.2163   -5.8212    0.0000 H   0  0  0  0  0  0  0  0  0  0  0  0
    3.3222   -6.7190    0.0000 H   0  0  0  0  0  0  0  0  0  0  0  0
  1 17  1  0  0  0  0
  1 24  1  0  0  0  0
  2 20  1  0  0  0  0
  2 79  1  0  0  0  0
  3 25  1  0  0  0  0
  3 43  1  0  0  0  0
  4 24  1  0  0  0  0
  4 81  1  0  0  0  0
  5 27  1  0  0  0  0
  5 44  1  0  0  0  0
  6 29  1  0  0  0  0
  6 45  1  0  0  0  0
  7 31  1  0  0  0  0
  7 46  1  0  0  0  0
  8 32  1  0  0  0  0
  8 89  1  0  0  0  0
  9 35  1  0  0  0  0
  9 90  1  0  0  0  0
 10 43  2  0  0  0  0
 11 44  2  0  0  0  0
 12 45  2  0  0  0  0
 13 46  2  0  0  0  0
 14 51  1  0  0  0  0
 14113  1  0  0  0  0
 15 54  1  0  0  0  0
 15120  1  0  0  0  0
 16 36  1  0  0  0  0
 16 37  1  0  0  0  0
 16 40  1  0  0  0  0
 17 18  1  0  0  0  0
 17 19  1  0  0  0  0
 17 23  1  0  0  0  0
 18 22  1  0  0  0  0
 18 28  1  0  0  0  0
 18 33  1  0  0  0  0
 19 20  1  0  0  0  0
 19 25  1  0  0  0  0
 19 58  1  0  0  0  0
 20 21  1  0  0  0  0
 20 29  1  0  0  0  0
 21 23  1  0  0  0  0
 21 26  1  0  0  0  0
 21 59  1  0  0  0  0
 22 24  1  0  0  0  0
 22 27  1  0  0  0  0
 22 60  1  0  0  0  0
 23 61  1  0  0  0  0
 23 62  1  0  0  0  0
 24 31  1  0  0  0  0
 25 27  1  0  0  0  0
 25 63  1  0  0  0  0
 26 30  1  0  0  0  0
 26 36  1  0  0  0  0
 26 64  1  0  0  0  0
 27 65  1  0  0  0  0
 28 34  1  0  0  0  0
 28 66  1  0  0  0  0
 28 67  1  0  0  0  0
 29 32  1  0  0  0  0
 29 68  1  0  0  0  0
 30 32  1  0  0  0  0
 30 35  1  0  0  0  0
 30 69  1  0  0  0  0
 31 34  1  0  0  0  0
 31 70  1  0  0  0  0
 32 71  1  0  0  0  0
 33 72  1  0  0  0  0
 33 73  1  0  0  0  0
 33 74  1  0  0  0  0
 34 75  1  0  0  0  0
 34 76  1  0  0  0  0
 35 37  1  0  0  0  0
 35 38  1  0  0  0  0
 36 77  1  0  0  0  0
 36 78  1  0  0  0  0
 37 39  1  0  0  0  0
 37 80  1  0  0  0  0
 38 82  1  0  0  0  0
 38 83  1  0  0  0  0
 38 84  1  0  0  0  0
 39 42  1  0  0  0  0
 39 85  1  0  0  0  0
 39 86  1  0  0  0  0
 40 41  1  0  0  0  0
 40 87  1  0  0  0  0
 40 88  1  0  0  0  0
 41 42  1  0  0  0  0
 41 47  1  0  0  0  0
 41 91  1  0  0  0  0
 42 92  1  0  0  0  0
 42 93  1  0  0  0  0
 43 49  1  0  0  0  0
 44 50  1  0  0  0  0
 45 48  1  0  0  0  0
 46 51  1  0  0  0  0
 47 94  1  0  0  0  0
 47 95  1  0  0  0  0
 47 96  1  0  0  0  0
 48 52  1  0  0  0  0
 48 53  1  0  0  0  0
 48 97  1  0  0  0  0
 49 98  1  0  0  0  0
 49 99  1  0  0  0  0
 49100  1  0  0  0  0
 50101  1  0  0  0  0
 50102  1  0  0  0  0
 50103  1  0  0  0  0
 51 54  1  0  0  0  0
 51 55  1  0  0  0  0
 52 56  1  0  0  0  0
 52104  1  0  0  0  0
 52105  1  0  0  0  0
 53106  1  0  0  0  0
 53107  1  0  0  0  0
 53108  1  0  0  0  0
 54 57  1  0  0  0  0
 54109  1  0  0  0  0
 55110  1  0  0  0  0
 55111  1  0  0  0  0
 55112  1  0  0  0  0
 56114  1  0  0  0  0
 56115  1  0  0  0  0
 56116  1  0  0  0  0
 57117  1  0  0  0  0
 57118  1  0  0  0  0
 57119  1  0  0  0  0
M  END
> <PUBCHEM_COMPOUND_CID>
4975

> <PUBCHEM_COMPOUND_CANONICALIZED>
1

> <PUBCHEM_CACTVS_COMPLEXITY>
1660

> <PUBCHEM_CACTVS_HBOND_ACCEPTOR>
16

> <PUBCHEM_CACTVS_HBOND_DONOR>
6

> <PUBCHEM_CACTVS_ROTATABLE_BOND>
12

> <PUBCHEM_CACTVS_SUBSKEYS>
AAADcfB+PAAAAAAAAAAAAAAAAAAAAaIAAAA8eMECBIkAAGCwAAAAHgAACAAAD3zhgAYCCAMABgAIAACQCAIAAAAAAAAAAAFIAAATEBYAgAAGQAAFIACXAAHw8P8PgAAAAAAAAADCAAYQADCAAYQADAAAAA==

> <PUBCHEM_IUPAC_INCHI>
InChI=1S/C41H63NO15/c1-10-19(3)34(47)56-33-28(46)27-23(17-42-16-18(2)11-12-25(42)38(27,9)50)24-15-39-32(40(24,33)51)30(54-22(6)45)29(53-21(5)44)31-36(39,7)14-13-26(41(31,52)57-39)55-35(48)37(8,49)20(4)43/h18-20,23-33,43,46,49-52H,10-17H2,1-9H3

> <PUBCHEM_IUPAC_INCHIKEY>
BFLXOMFFVWQPAZ-UHFFFAOYSA-N

> <PUBCHEM_XLOGP3_AA>
1

> <PUBCHEM_EXACT_MASS>
809.41977

> <PUBCHEM_MOLECULAR_FORMULA>
C41H63NO15

> <PUBCHEM_MOLECULAR_WEIGHT>
809.93662

> <PUBCHEM_OPENEYE_CAN_SMILES>
CCC(C)C(=O)OC1C(C2C(CN3CC(CCC3C2(C)O)C)C4C1(C5C(C(C6C7(C5(C4)OC6(C(CC7)OC(=O)C(C)(C(C)O)O)O)C)OC(=O)C)OC(=O)C)O)O

> <PUBCHEM_OPENEYE_ISO_SMILES>
CCC(C)C(=O)OC1C(C2C(CN3CC(CCC3C2(C)O)C)C4C1(C5C(C(C6C7(C5(C4)OC6(C(CC7)OC(=O)C(C)(C(C)O)O)O)C)OC(=O)C)OC(=O)C)O)O

> <PUBCHEM_CACTVS_TPSA>
239

> <PUBCHEM_MONOISOTOPIC_WEIGHT>
809.41977

> <PUBCHEM_TOTAL_CHARGE>
0

> <PUBCHEM_HEAVY_ATOM_COUNT>
57

> <PUBCHEM_ATOM_DEF_STEREO_COUNT>
0

> <PUBCHEM_ATOM_UDEF_STEREO_COUNT>
20

> <PUBCHEM_BOND_DEF_STEREO_COUNT>
0

> <PUBCHEM_BOND_UDEF_STEREO_COUNT>
0

> <PUBCHEM_ISOTOPIC_ATOM_COUNT>
0

> <PUBCHEM_COMPONENT_COUNT>
1

> <PUBCHEM_CACTVS_TAUTO_COUNT>
1

> <PUBCHEM_COORDINATE_TYPE>
1
5
255

> <PUBCHEM_BONDANNOTATIONS>
17  23  3
18  33  3
19  58  3
20  2  3
21  59  3
22  60  3
25  63  3
26  64  3
27  65  3
29  68  3
30  69  3
31  70  3
32  71  3
35  38  3
37  80  3
24  4  3
41  91  3
51  46  3
48  97  3
54  109  3

$$$$

