13303
  -OEChem-06261208442D

 41 42  0     0  0  0  0  0  0999 V2000
    3.2200    8.8699    0.0000 Cl  0  5  0  0  0  0  0  0  0  0  0  0
    3.9748    6.2276    0.0000 S   0  0  0  0  0  0  0  0  0  0  0  0
    1.7427    1.0369    0.0000 N   0  3  0  0  0  0  0  0  0  0  0  0
    3.4747    4.0369    0.0000 C   0  0  0  0  0  0  0  0  0  0  0  0
    2.5738    4.4708    0.0000 C   0  0  0  0  0  0  0  0  0  0  0  0
    2.6087    2.5369    0.0000 C   0  0  0  0  0  0  0  0  0  0  0  0
    4.3757    4.4708    0.0000 C   0  0  0  0  0  0  0  0  0  0  0  0
    2.3513    5.4457    0.0000 C   0  0  0  0  0  0  0  0  0  0  0  0
    2.6087    1.5369    0.0000 C   0  0  0  0  0  0  0  0  0  0  0  0
    3.4747    3.0369    0.0000 C   0  0  0  0  0  0  0  0  0  0  0  0
    2.9748    6.2276    0.0000 C   0  0  0  0  0  0  0  0  0  0  0  0
    4.5982    5.4457    0.0000 C   0  0  0  0  0  0  0  0  0  0  0  0
    1.8212    3.7506    0.0000 C   0  0  0  0  0  0  0  0  0  0  0  0
    1.3608    5.7681    0.0000 C   0  0  0  0  0  0  0  0  0  0  0  0
    5.1283    3.7506    0.0000 C   0  0  0  0  0  0  0  0  0  0  0  0
    5.5887    5.7681    0.0000 C   0  0  0  0  0  0  0  0  0  0  0  0
    0.8235    4.0500    0.0000 C   0  0  0  0  0  0  0  0  0  0  0  0
    0.5917    5.0655    0.0000 C   0  0  0  0  0  0  0  0  0  0  0  0
    0.8766    0.5369    0.0000 C   0  0  0  0  0  0  0  0  0  0  0  0
    6.1260    4.0499    0.0000 C   0  0  0  0  0  0  0  0  0  0  0  0
    6.3577    5.0655    0.0000 C   0  0  0  0  0  0  0  0  0  0  0  0
    1.9981    2.4293    0.0000 H   0  0  0  0  0  0  0  0  0  0  0  0
    2.3967    3.1195    0.0000 H   0  0  0  0  0  0  0  0  0  0  0  0
    3.2193    1.6446    0.0000 H   0  0  0  0  0  0  0  0  0  0  0  0
    2.8207    0.9543    0.0000 H   0  0  0  0  0  0  0  0  0  0  0  0
    4.0117    2.7269    0.0000 H   0  0  0  0  0  0  0  0  0  0  0  0
    3.1127    6.8320    0.0000 H   0  0  0  0  0  0  0  0  0  0  0  0
    2.4162    6.4966    0.0000 H   0  0  0  0  0  0  0  0  0  0  0  0
    1.4327    1.5739    0.0000 H   0  0  0  0  0  0  0  0  0  0  0  0
    2.0527    0.5000    0.0000 H   0  0  0  0  0  0  0  0  0  0  0  0
    1.9661    3.1478    0.0000 H   0  0  0  0  0  0  0  0  0  0  0  0
    1.2298    6.3741    0.0000 H   0  0  0  0  0  0  0  0  0  0  0  0
    4.9833    3.1478    0.0000 H   0  0  0  0  0  0  0  0  0  0  0  0
    5.7197    6.3741    0.0000 H   0  0  0  0  0  0  0  0  0  0  0  0
    0.3707    3.6265    0.0000 H   0  0  0  0  0  0  0  0  0  0  0  0
    0.0000    5.2505    0.0000 H   0  0  0  0  0  0  0  0  0  0  0  0
    0.5666    1.0739    0.0000 H   0  0  0  0  0  0  0  0  0  0  0  0
    0.3397    0.2269    0.0000 H   0  0  0  0  0  0  0  0  0  0  0  0
    1.1866    0.0000    0.0000 H   0  0  0  0  0  0  0  0  0  0  0  0
    6.5788    3.6265    0.0000 H   0  0  0  0  0  0  0  0  0  0  0  0
    6.9495    5.2505    0.0000 H   0  0  0  0  0  0  0  0  0  0  0  0
  2 11  1  0  0  0  0
  2 12  1  0  0  0  0
  3  9  1  0  0  0  0
  3 19  1  0  0  0  0
  3 29  1  0  0  0  0
  3 30  1  0  0  0  0
  4  5  1  0  0  0  0
  4  7  1  0  0  0  0
  4 10  2  3  0  0  0
  5  8  1  0  0  0  0
  5 13  2  0  0  0  0
  6  9  1  0  0  0  0
  6 10  1  0  0  0  0
  6 22  1  0  0  0  0
  6 23  1  0  0  0  0
  7 12  1  0  0  0  0
  7 15  2  0  0  0  0
  8 11  1  0  0  0  0
  8 14  2  0  0  0  0
  9 24  1  0  0  0  0
  9 25  1  0  0  0  0
 10 26  1  0  0  0  0
 11 27  1  0  0  0  0
 11 28  1  0  0  0  0
 12 16  2  0  0  0  0
 13 17  1  0  0  0  0
 13 31  1  0  0  0  0
 14 18  1  0  0  0  0
 14 32  1  0  0  0  0
 15 20  1  0  0  0  0
 15 33  1  0  0  0  0
 16 21  1  0  0  0  0
 16 34  1  0  0  0  0
 17 18  2  0  0  0  0
 17 35  1  0  0  0  0
 18 36  1  0  0  0  0
 19 37  1  0  0  0  0
 19 38  1  0  0  0  0
 19 39  1  0  0  0  0
 20 21  2  0  0  0  0
 20 40  1  0  0  0  0
 21 41  1  0  0  0  0
M  CHG  2   1  -1   3   1
M  END
> <PUBCHEM_COMPOUND_CID>
13303

> <PUBCHEM_COMPOUND_CANONICALIZED>
1

> <PUBCHEM_CACTVS_COMPLEXITY>
338

> <PUBCHEM_CACTVS_HBOND_ACCEPTOR>
2

> <PUBCHEM_CACTVS_HBOND_DONOR>
1

> <PUBCHEM_CACTVS_ROTATABLE_BOND>
3

> <PUBCHEM_CACTVS_SUBSKEYS>
AAADceB6AABEAAAAAAAAAAAAAAAAAAAAAAAwYAAABIAAAAABQAAAHAQQAAAADADFWASyAYLAAAiAAiBCAAACAAAgCBAIiJgIAIgIICKgERCEIAAgkAAoiAcAgMAOgAAAAAAUAAAAAAAAACgAAAAAAAAAAA==

> <PUBCHEM_IUPAC_OPENEYE_NAME>
3-(6H-benzo[c][1]benzothiepin-11-ylidene)propyl-methyl-ammonium chloride

> <PUBCHEM_IUPAC_CAS_NAME>
3-(6H-benzo[c][1]benzothiepin-11-ylidene)propyl-methylammonium chloride

> <PUBCHEM_IUPAC_NAME>
3-(6H-benzo[c][1]benzothiepin-11-ylidene)propyl-methylazanium chloride

> <PUBCHEM_IUPAC_SYSTEMATIC_NAME>
3-(6H-benzo[c][1]benzothiepin-11-ylidene)propyl-methyl-azanium chloride

> <PUBCHEM_IUPAC_TRADITIONAL_NAME>
3-(6H-benzo[c][1]benzothiepin-11-ylidene)propyl-methyl-ammonium chloride

> <PUBCHEM_IUPAC_INCHI>
InChI=1S/C18H19NS.ClH/c1-19-12-6-10-16-15-8-3-2-7-14(15)13-20-18-11-5-4-9-17(16)18;/h2-5,7-11,19H,6,12-13H2,1H3;1H

> <PUBCHEM_IUPAC_INCHIKEY>
NWQQNDSPQDCEEJ-UHFFFAOYSA-N

> <PUBCHEM_EXACT_MASS>
317.100498

> <PUBCHEM_MOLECULAR_FORMULA>
C18H20ClNS

> <PUBCHEM_MOLECULAR_WEIGHT>
317.8761

> <PUBCHEM_OPENEYE_CAN_SMILES>
C[NH2+]CCC=C1C2=CC=CC=C2CSC3=CC=CC=C31.[Cl-]

> <PUBCHEM_OPENEYE_ISO_SMILES>
C[NH2+]CCC=C1C2=CC=CC=C2CSC3=CC=CC=C31.[Cl-]

> <PUBCHEM_CACTVS_TPSA>
41.9

> <PUBCHEM_MONOISOTOPIC_WEIGHT>
317.100498

> <PUBCHEM_TOTAL_CHARGE>
0

> <PUBCHEM_HEAVY_ATOM_COUNT>
21

> <PUBCHEM_ATOM_DEF_STEREO_COUNT>
0

> <PUBCHEM_ATOM_UDEF_STEREO_COUNT>
0

> <PUBCHEM_BOND_DEF_STEREO_COUNT>
0

> <PUBCHEM_BOND_UDEF_STEREO_COUNT>
1

> <PUBCHEM_ISOTOPIC_ATOM_COUNT>
0

> <PUBCHEM_COMPONENT_COUNT>
2

> <PUBCHEM_CACTVS_TAUTO_COUNT>
1

> <PUBCHEM_COORDINATE_TYPE>
1
5
255

> <PUBCHEM_BONDANNOTATIONS>
12  16  8
13  17  8
14  18  8
15  20  8
16  21  8
17  18  8
20  21  8
4  10  1
5  13  8
5  8  8
7  12  8
7  15  8
8  14  8

$$$$

