854052
  -OEChem-06241222472D

 20 19  0     0  0  0  0  0  0999 V2000
    3.7320   -1.2500    0.0000 F   0  0  0  0  0  0  0  0  0  0  0  0
    4.5981    0.2500    0.0000 N   0  3  0  0  0  0  0  0  0  0  0  0
    2.8660    0.2500    0.0000 N   0  0  0  0  0  0  0  0  0  0  0  0
    3.7320   -0.2500    0.0000 C   0  0  0  0  0  0  0  0  0  0  0  0
    5.4641   -0.2500    0.0000 C   0  0  0  0  0  0  0  0  0  0  0  0
    4.5981    1.2500    0.0000 C   0  0  0  0  0  0  0  0  0  0  0  0
    2.0000   -0.2500    0.0000 C   0  0  0  0  0  0  0  0  0  0  0  0
    2.8660    1.2500    0.0000 C   0  0  0  0  0  0  0  0  0  0  0  0
    5.2181    1.2500    0.0000 H   0  0  0  0  0  0  0  0  0  0  0  0
    4.5981    1.8700    0.0000 H   0  0  0  0  0  0  0  0  0  0  0  0
    3.9781    1.2500    0.0000 H   0  0  0  0  0  0  0  0  0  0  0  0
    5.1541   -0.7869    0.0000 H   0  0  0  0  0  0  0  0  0  0  0  0
    6.0010   -0.5600    0.0000 H   0  0  0  0  0  0  0  0  0  0  0  0
    5.7741    0.2869    0.0000 H   0  0  0  0  0  0  0  0  0  0  0  0
    1.6900    0.2869    0.0000 H   0  0  0  0  0  0  0  0  0  0  0  0
    1.4631   -0.5600    0.0000 H   0  0  0  0  0  0  0  0  0  0  0  0
    2.3100   -0.7869    0.0000 H   0  0  0  0  0  0  0  0  0  0  0  0
    3.4860    1.2500    0.0000 H   0  0  0  0  0  0  0  0  0  0  0  0
    2.8660    1.8700    0.0000 H   0  0  0  0  0  0  0  0  0  0  0  0
    2.2460    1.2500    0.0000 H   0  0  0  0  0  0  0  0  0  0  0  0
  1  4  1  0  0  0  0
  2  4  2  0  0  0  0
  2  5  1  0  0  0  0
  2  6  1  0  0  0  0
  3  4  1  0  0  0  0
  3  7  1  0  0  0  0
  3  8  1  0  0  0  0
  5 12  1  0  0  0  0
  5 13  1  0  0  0  0
  5 14  1  0  0  0  0
  6  9  1  0  0  0  0
  6 10  1  0  0  0  0
  6 11  1  0  0  0  0
  7 15  1  0  0  0  0
  7 16  1  0  0  0  0
  7 17  1  0  0  0  0
  8 18  1  0  0  0  0
  8 19  1  0  0  0  0
  8 20  1  0  0  0  0
M  CHG  1   2   1
M  END
> <PUBCHEM_COMPOUND_CID>
854052

> <PUBCHEM_COMPOUND_CANONICALIZED>
1

> <PUBCHEM_CACTVS_COMPLEXITY>
90

> <PUBCHEM_CACTVS_HBOND_ACCEPTOR>
1

> <PUBCHEM_CACTVS_HBOND_DONOR>
0

> <PUBCHEM_CACTVS_ROTATABLE_BOND>
1

> <PUBCHEM_CACTVS_SUBSKEYS>
AAADccBjAQAAAAAAAAAAAAAAAAAAAAAAAAAAAAAAAAAAAAAAAAAAFQAAAAAAAAAAAAQDAAMAAAAgAAAAJAAAAAEAAAABAAAIAAAAAAAAAAAAAAAAAAAAAAAAAAAAAAAAAAAAAAAAAAAAAAAAAAAAAAAAAA==

> <PUBCHEM_IUPAC_OPENEYE_NAME>
[dimethylamino(fluoro)methylene]-dimethyl-ammonium

> <PUBCHEM_IUPAC_CAS_NAME>
[dimethylamino(fluoro)methylidene]-dimethylammonium

> <PUBCHEM_IUPAC_NAME>
[dimethylamino(fluoro)methylidene]-dimethylazanium

> <PUBCHEM_IUPAC_SYSTEMATIC_NAME>
[dimethylamino(fluoranyl)methylidene]-dimethyl-azanium

> <PUBCHEM_IUPAC_TRADITIONAL_NAME>
[dimethylamino(fluoro)methylene]-dimethyl-ammonium

> <PUBCHEM_IUPAC_INCHI>
InChI=1S/C5H12FN2/c1-7(2)5(6)8(3)4/h1-4H3/q+1

> <PUBCHEM_IUPAC_INCHIKEY>
JILUGXGJYPRQPA-UHFFFAOYSA-N

> <PUBCHEM_XLOGP3_AA>
0.4

> <PUBCHEM_EXACT_MASS>
119.098452

> <PUBCHEM_MOLECULAR_FORMULA>
C5H12FN2+

> <PUBCHEM_MOLECULAR_WEIGHT>
119.160583

> <PUBCHEM_OPENEYE_CAN_SMILES>
CN(C)C(=[N+](C)C)F

> <PUBCHEM_OPENEYE_ISO_SMILES>
CN(C)C(=[N+](C)C)F

> <PUBCHEM_CACTVS_TPSA>
6.2

> <PUBCHEM_MONOISOTOPIC_WEIGHT>
119.098452

> <PUBCHEM_TOTAL_CHARGE>
1

> <PUBCHEM_HEAVY_ATOM_COUNT>
8

> <PUBCHEM_ATOM_DEF_STEREO_COUNT>
0

> <PUBCHEM_ATOM_UDEF_STEREO_COUNT>
0

> <PUBCHEM_BOND_DEF_STEREO_COUNT>
0

> <PUBCHEM_BOND_UDEF_STEREO_COUNT>
0

> <PUBCHEM_ISOTOPIC_ATOM_COUNT>
0

> <PUBCHEM_COMPONENT_COUNT>
1

> <PUBCHEM_CACTVS_TAUTO_COUNT>
1

> <PUBCHEM_COORDINATE_TYPE>
1
5
255

$$$$

