9566
  -OEChem-06261203493D

 15 14  0     1  0  0  0  0  0999 V2000
    0.3498    2.1458    0.2915 Cl  0  0  0  0  0  0  0  0  0  0  0  0
    1.7294   -1.8587   -0.8462 Cl  0  0  0  0  0  0  0  0  0  0  0  0
    1.4993   -0.6226    1.7631 Cl  0  0  0  0  0  0  0  0  0  0  0  0
    3.2320    0.5599   -0.2659 Cl  0  0  0  0  0  0  0  0  0  0  0  0
   -3.1939   -0.5123    0.9406 F   0  0  0  0  0  0  0  0  0  0  0  0
   -0.7406   -0.1766   -0.2688 O   0  0  0  0  0  0  0  0  0  0  0  0
    0.4724    0.5450   -0.5115 C   0  0  2  0  0  0  0  0  0  0  0  0
   -1.8999    0.5196   -0.7070 C   0  0  0  0  0  0  0  0  0  0  0  0
    1.6695   -0.2758    0.0098 C   0  0  0  0  0  0  0  0  0  0  0  0
   -3.1180   -0.3242   -0.4056 C   0  0  0  0  0  0  0  0  0  0  0  0
    0.5718    0.7287   -1.5882 H   0  0  0  0  0  0  0  0  0  0  0  0
   -1.8338    0.7120   -1.7832 H   0  0  0  0  0  0  0  0  0  0  0  0
   -2.0333    1.4634   -0.1727 H   0  0  0  0  0  0  0  0  0  0  0  0
   -4.0385    0.1643   -0.7357 H   0  0  0  0  0  0  0  0  0  0  0  0
   -3.0420   -1.3129   -0.8670 H   0  0  0  0  0  0  0  0  0  0  0  0
  1  7  1  0  0  0  0
  2  9  1  0  0  0  0
  3  9  1  0  0  0  0
  4  9  1  0  0  0  0
  5 10  1  0  0  0  0
  6  7  1  0  0  0  0
  6  8  1  0  0  0  0
  7  9  1  0  0  0  0
  7 11  1  0  0  0  0
  8 10  1  0  0  0  0
  8 12  1  0  0  0  0
  8 13  1  0  0  0  0
 10 14  1  0  0  0  0
 10 15  1  0  0  0  0
M  END
> <PUBCHEM_COMPOUND_CID>
9566

> <PUBCHEM_CONFORMER_RMSD>
0.6

> <PUBCHEM_CONFORMER_DIVERSEORDER>
1
3
4
2

> <PUBCHEM_MMFF94_PARTIAL_CHARGES>
10
1 -0.29
10 0.34
2 -0.29
3 -0.29
4 -0.29
5 -0.34
6 -0.56
7 0.57
8 0.28
9 0.87

> <PUBCHEM_EFFECTIVE_ROTOR_COUNT>
4

> <PUBCHEM_PHARMACOPHORE_FEATURES>
1
1 6 acceptor

> <PUBCHEM_HEAVY_ATOM_COUNT>
10

> <PUBCHEM_ATOM_DEF_STEREO_COUNT>
0

> <PUBCHEM_ATOM_UDEF_STEREO_COUNT>
1

> <PUBCHEM_BOND_DEF_STEREO_COUNT>
0

> <PUBCHEM_BOND_UDEF_STEREO_COUNT>
0

> <PUBCHEM_ISOTOPIC_ATOM_COUNT>
0

> <PUBCHEM_COMPONENT_COUNT>
1

> <PUBCHEM_CACTVS_TAUTO_COUNT>
1

> <PUBCHEM_CONFORMER_ID>
0000255E00000001

> <PUBCHEM_MMFF94_ENERGY>
14.7676

> <PUBCHEM_FEATURE_SELFOVERLAP>
5.074

> <PUBCHEM_SHAPE_FINGERPRINT>
10219947 1 18333453123077714780
10857977 72 18335435576844369257
12932764 1 18201732716986928765
14128692 85 16700627907128808370
14252887 29 18341880892774304971
20201158 50 18342738511712075239
20653091 64 18272652328995663417
20711985 344 17910678996401019701
23235685 24 18261117343986932366
23380061 451 17917713517361083801
23552333 60 17846226612955441512
23552423 10 18123750013447602342
29004967 10 18408325505358093756
3248919 1 18339093699385351293

> <PUBCHEM_SHAPE_MULTIPOLES>
200.13
4.75
1.69
1.21
3.03
0.37
-0.59
-0.83
0.02
-0.74
0.19
-0.32
-0.29
0.19

> <PUBCHEM_SHAPE_SELFOVERLAP>
337.953

> <PUBCHEM_SHAPE_VOLUME>
136.6

> <PUBCHEM_COORDINATE_TYPE>
2
5
10

$$$$

