583420
  -OEChem-06241222452D

 30 31  0     1  0  0  0  0  0999 V2000
    5.8320    0.9472    0.0000 S   0  0  0  0  0  0  0  0  0  0  0  0
    2.3985    0.2844    0.0000 O   0  0  0  0  0  0  0  0  0  0  0  0
    2.7805    1.5286    0.0000 O   0  0  0  0  0  0  0  0  0  0  0  0
    4.7494   -0.2552    0.0000 N   0  0  0  0  0  0  0  0  0  0  0  0
    4.3098    2.3418    0.0000 N   0  0  0  0  0  0  0  0  0  0  0  0
    4.2494    0.6108    0.0000 C   0  0  3  0  0  0  0  0  0  0  0  0
    3.3833    0.1108    0.0000 C   0  0  3  0  0  0  0  0  0  0  0  0
    4.9185    1.3539    0.0000 C   0  0  0  0  0  0  0  0  0  0  0  0
    5.7275   -0.0473    0.0000 C   0  0  0  0  0  0  0  0  0  0  0  0
    3.7799    1.4937    0.0000 C   0  0  0  0  0  0  0  0  0  0  0  0
    3.3833   -0.8892    0.0000 C   0  0  0  0  0  0  0  0  0  0  0  0
    2.5173   -1.3892    0.0000 C   0  0  0  0  0  0  0  0  0  0  0  0
    4.2494   -1.3892    0.0000 C   0  0  0  0  0  0  0  0  0  0  0  0
    2.5173   -2.3892    0.0000 C   0  0  0  0  0  0  0  0  0  0  0  0
    4.2494   -2.3892    0.0000 C   0  0  0  0  0  0  0  0  0  0  0  0
    3.3833   -2.8892    0.0000 C   0  0  0  0  0  0  0  0  0  0  0  0
    3.2357    0.9479    0.0000 H   0  0  0  0  0  0  0  0  0  0  0  0
    5.2285    1.8909    0.0000 H   0  0  0  0  0  0  0  0  0  0  0  0
    4.4169    1.7184    0.0000 H   0  0  0  0  0  0  0  0  0  0  0  0
    4.4972   -0.8216    0.0000 H   0  0  0  0  0  0  0  0  0  0  0  0
    5.7923   -0.6639    0.0000 H   0  0  0  0  0  0  0  0  0  0  0  0
    6.3475   -0.0473    0.0000 H   0  0  0  0  0  0  0  0  0  0  0  0
    2.0000   -0.1905    0.0000 H   0  0  0  0  0  0  0  0  0  0  0  0
    1.9804   -1.0792    0.0000 H   0  0  0  0  0  0  0  0  0  0  0  0
    4.7863   -1.0792    0.0000 H   0  0  0  0  0  0  0  0  0  0  0  0
    4.0187    2.8892    0.0000 H   0  0  0  0  0  0  0  0  0  0  0  0
    4.9294    2.3202    0.0000 H   0  0  0  0  0  0  0  0  0  0  0  0
    1.9804   -2.6992    0.0000 H   0  0  0  0  0  0  0  0  0  0  0  0
    4.7863   -2.6992    0.0000 H   0  0  0  0  0  0  0  0  0  0  0  0
    3.3833   -3.5092    0.0000 H   0  0  0  0  0  0  0  0  0  0  0  0
  1  8  1  0  0  0  0
  1  9  1  0  0  0  0
  2  7  1  0  0  0  0
  2 23  1  0  0  0  0
  3 10  2  0  0  0  0
  4  6  1  0  0  0  0
  4  9  1  0  0  0  0
  4 20  1  0  0  0  0
  5 10  1  0  0  0  0
  5 26  1  0  0  0  0
  5 27  1  0  0  0  0
  6  7  1  0  0  0  0
  6  8  1  0  0  0  0
  6 10  1  0  0  0  0
  7 11  1  0  0  0  0
  7 17  1  0  0  0  0
  8 18  1  0  0  0  0
  8 19  1  0  0  0  0
  9 21  1  0  0  0  0
  9 22  1  0  0  0  0
 11 12  2  0  0  0  0
 11 13  1  0  0  0  0
 12 14  1  0  0  0  0
 12 24  1  0  0  0  0
 13 15  2  0  0  0  0
 13 25  1  0  0  0  0
 14 16  2  0  0  0  0
 14 28  1  0  0  0  0
 15 16  1  0  0  0  0
 15 29  1  0  0  0  0
 16 30  1  0  0  0  0
M  END
> <PUBCHEM_COMPOUND_CID>
583420

> <PUBCHEM_COMPOUND_CANONICALIZED>
1

> <PUBCHEM_CACTVS_COMPLEXITY>
269

> <PUBCHEM_CACTVS_HBOND_ACCEPTOR>
4

> <PUBCHEM_CACTVS_HBOND_DONOR>
3

> <PUBCHEM_CACTVS_ROTATABLE_BOND>
3

> <PUBCHEM_CACTVS_SUBSKEYS>
AAADccBzMABAAAAAAAAAAAAAAAAAAWAAAAAwAAAAAAAAAAABAAAAHgQQCAAADJyl2AawAILAAgiIAiFSEAACAABgABAIiIGICIgKdjagkTGUcAAm8AEYmAeYyOCOAAAAAAAAAAAAAAAAAAAAAAAAAAAAAA==

> <PUBCHEM_IUPAC_OPENEYE_NAME>
4-[hydroxy(phenyl)methyl]thiazolidine-4-carboxamide

> <PUBCHEM_IUPAC_CAS_NAME>
4-[hydroxy(phenyl)methyl]-4-thiazolidinecarboxamide

> <PUBCHEM_IUPAC_NAME>
4-[hydroxy(phenyl)methyl]-1,3-thiazolidine-4-carboxamide

> <PUBCHEM_IUPAC_SYSTEMATIC_NAME>
4-[oxidanyl(phenyl)methyl]-1,3-thiazolidine-4-carboxamide

> <PUBCHEM_IUPAC_TRADITIONAL_NAME>
4-[hydroxy(phenyl)methyl]thiazolidine-4-carboxamide

> <PUBCHEM_IUPAC_INCHI>
InChI=1S/C11H14N2O2S/c12-10(15)11(6-16-7-13-11)9(14)8-4-2-1-3-5-8/h1-5,9,13-14H,6-7H2,(H2,12,15)

> <PUBCHEM_IUPAC_INCHIKEY>
BALJZAHXQNVIBK-UHFFFAOYSA-N

> <PUBCHEM_XLOGP3_AA>
0

> <PUBCHEM_EXACT_MASS>
238.077599

> <PUBCHEM_MOLECULAR_FORMULA>
C11H14N2O2S

> <PUBCHEM_MOLECULAR_WEIGHT>
238.30606

> <PUBCHEM_OPENEYE_CAN_SMILES>
C1C(NCS1)(C(C2=CC=CC=C2)O)C(=O)N

> <PUBCHEM_OPENEYE_ISO_SMILES>
C1C(NCS1)(C(C2=CC=CC=C2)O)C(=O)N

> <PUBCHEM_CACTVS_TPSA>
101

> <PUBCHEM_MONOISOTOPIC_WEIGHT>
238.077599

> <PUBCHEM_TOTAL_CHARGE>
0

> <PUBCHEM_HEAVY_ATOM_COUNT>
16

> <PUBCHEM_ATOM_DEF_STEREO_COUNT>
0

> <PUBCHEM_ATOM_UDEF_STEREO_COUNT>
2

> <PUBCHEM_BOND_DEF_STEREO_COUNT>
0

> <PUBCHEM_BOND_UDEF_STEREO_COUNT>
0

> <PUBCHEM_ISOTOPIC_ATOM_COUNT>
0

> <PUBCHEM_COMPONENT_COUNT>
1

> <PUBCHEM_CACTVS_TAUTO_COUNT>
2

> <PUBCHEM_COORDINATE_TYPE>
1
5
255

> <PUBCHEM_BONDANNOTATIONS>
11  12  8
11  13  8
12  14  8
13  15  8
14  16  8
15  16  8
6  10  3
7  17  3

$$$$

