11567
  -OEChem-06261205503D

 20 20  0     1  0  0  0  0  0999 V2000
    2.2110   -1.1594    0.2937 O   0  0  0  0  0  0  0  0  0  0  0  0
   -1.2249   -0.2961    0.3199 C   0  0  2  0  0  0  0  0  0  0  0  0
   -1.1324    1.1799   -0.0941 C   0  0  0  0  0  0  0  0  0  0  0  0
   -0.1060   -1.1178   -0.3246 C   0  0  0  0  0  0  0  0  0  0  0  0
    0.2301    1.7671    0.2710 C   0  0  0  0  0  0  0  0  0  0  0  0
    1.3709    0.9869   -0.3657 C   0  0  0  0  0  0  0  0  0  0  0  0
    1.2426   -0.4870   -0.0572 C   0  0  0  0  0  0  0  0  0  0  0  0
   -2.5913   -0.8737   -0.0431 C   0  0  0  0  0  0  0  0  0  0  0  0
   -1.1113   -0.3512    1.4112 H   0  0  0  0  0  0  0  0  0  0  0  0
   -1.9187    1.7579    0.4060 H   0  0  0  0  0  0  0  0  0  0  0  0
   -1.2980    1.2811   -1.1742 H   0  0  0  0  0  0  0  0  0  0  0  0
   -0.2350   -1.1862   -1.4109 H   0  0  0  0  0  0  0  0  0  0  0  0
   -0.1052   -2.1358    0.0808 H   0  0  0  0  0  0  0  0  0  0  0  0
    0.3443    1.7572    1.3623 H   0  0  0  0  0  0  0  0  0  0  0  0
    0.2782    2.8146   -0.0470 H   0  0  0  0  0  0  0  0  0  0  0  0
    2.3303    1.3516    0.0157 H   0  0  0  0  0  0  0  0  0  0  0  0
    1.3682    1.1079   -1.4544 H   0  0  0  0  0  0  0  0  0  0  0  0
   -2.6697   -1.9172    0.2797 H   0  0  0  0  0  0  0  0  0  0  0  0
   -3.3932   -0.3107    0.4460 H   0  0  0  0  0  0  0  0  0  0  0  0
   -2.7641   -0.8393   -1.1241 H   0  0  0  0  0  0  0  0  0  0  0  0
  1  7  2  0  0  0  0
  2  3  1  0  0  0  0
  2  4  1  0  0  0  0
  2  8  1  0  0  0  0
  2  9  1  0  0  0  0
  3  5  1  0  0  0  0
  3 10  1  0  0  0  0
  3 11  1  0  0  0  0
  4  7  1  0  0  0  0
  4 12  1  0  0  0  0
  4 13  1  0  0  0  0
  5  6  1  0  0  0  0
  5 14  1  0  0  0  0
  5 15  1  0  0  0  0
  6  7  1  0  0  0  0
  6 16  1  0  0  0  0
  6 17  1  0  0  0  0
  8 18  1  0  0  0  0
  8 19  1  0  0  0  0
  8 20  1  0  0  0  0
M  END
> <PUBCHEM_COMPOUND_CID>
11567

> <PUBCHEM_CONFORMER_RMSD>
0.4

> <PUBCHEM_CONFORMER_DIVERSEORDER>
2
3
1
4

> <PUBCHEM_MMFF94_PARTIAL_CHARGES>
4
1 -0.57
4 0.06
6 0.06
7 0.45

> <PUBCHEM_EFFECTIVE_ROTOR_COUNT>
1

> <PUBCHEM_PHARMACOPHORE_FEATURES>
2
1 1 acceptor
6 2 3 4 5 6 7 rings

> <PUBCHEM_HEAVY_ATOM_COUNT>
8

> <PUBCHEM_ATOM_DEF_STEREO_COUNT>
0

> <PUBCHEM_ATOM_UDEF_STEREO_COUNT>
1

> <PUBCHEM_BOND_DEF_STEREO_COUNT>
0

> <PUBCHEM_BOND_UDEF_STEREO_COUNT>
0

> <PUBCHEM_ISOTOPIC_ATOM_COUNT>
0

> <PUBCHEM_COMPONENT_COUNT>
1

> <PUBCHEM_CACTVS_TAUTO_COUNT>
3

> <PUBCHEM_CONFORMER_ID>
00002D2F00000002

> <PUBCHEM_MMFF94_ENERGY>
5.2556

> <PUBCHEM_FEATURE_SELFOVERLAP>
10.148

> <PUBCHEM_SHAPE_FINGERPRINT>
18185500 45 18263925432096264927
21040471 1 17257369644116352509
23552333 60 18261945237619590745
23552423 10 18273208716217587110
241688 4 18340486776085587873
29004967 10 18199744743860348553
5084963 1 18187363246320076819

> <PUBCHEM_SHAPE_MULTIPOLES>
158.77
2.74
1.73
0.67
0.95
0.44
0.01
-0.92
-0.04
-0.38
-0.05
-0.01
0.01
-0.11

> <PUBCHEM_SHAPE_SELFOVERLAP>
308.148

> <PUBCHEM_SHAPE_VOLUME>
96

> <PUBCHEM_COORDINATE_TYPE>
2
5
10

$$$$

