11360
  -OEChem-06261205353D

 18 19  0     0  0  0  0  0  0999 V2000
    1.7315   -2.1151    0.0003 O   0  0  0  0  0  0  0  0  0  0  0  0
   -1.7022    1.2711   -0.0003 N   0  0  0  0  0  0  0  0  0  0  0  0
   -0.0340   -0.4913   -0.0004 C   0  0  0  0  0  0  0  0  0  0  0  0
   -0.3552    0.9478   -0.0003 C   0  0  0  0  0  0  0  0  0  0  0  0
    1.3922   -0.9374   -0.0005 C   0  0  0  0  0  0  0  0  0  0  0  0
    0.6499    1.8399    0.0001 C   0  0  0  0  0  0  0  0  0  0  0  0
   -1.0209   -1.4120    0.0000 C   0  0  0  0  0  0  0  0  0  0  0  0
    2.4113    0.1457    0.0000 C   0  0  0  0  0  0  0  0  0  0  0  0
    2.0341    1.4304    0.0006 C   0  0  0  0  0  0  0  0  0  0  0  0
   -2.4154   -0.9965    0.0005 C   0  0  0  0  0  0  0  0  0  0  0  0
   -2.6913    0.3174    0.0002 C   0  0  0  0  0  0  0  0  0  0  0  0
   -0.8261   -2.4791    0.0001 H   0  0  0  0  0  0  0  0  0  0  0  0
    0.4502    2.9070    0.0003 H   0  0  0  0  0  0  0  0  0  0  0  0
   -1.9709    2.2476    0.0001 H   0  0  0  0  0  0  0  0  0  0  0  0
    3.4573   -0.1381    0.0003 H   0  0  0  0  0  0  0  0  0  0  0  0
    2.7827    2.2162    0.0011 H   0  0  0  0  0  0  0  0  0  0  0  0
   -3.1935   -1.7494    0.0010 H   0  0  0  0  0  0  0  0  0  0  0  0
   -3.6989    0.7125    0.0005 H   0  0  0  0  0  0  0  0  0  0  0  0
  1  5  2  0  0  0  0
  2  4  1  0  0  0  0
  2 11  1  0  0  0  0
  2 14  1  0  0  0  0
  3  4  1  0  0  0  0
  3  5  1  0  0  0  0
  3  7  2  0  0  0  0
  4  6  2  0  0  0  0
  5  8  1  0  0  0  0
  6  9  1  0  0  0  0
  6 13  1  0  0  0  0
  7 10  1  0  0  0  0
  7 12  1  0  0  0  0
  8  9  2  0  0  0  0
  8 15  1  0  0  0  0
  9 16  1  0  0  0  0
 10 11  2  0  0  0  0
 10 17  1  0  0  0  0
 11 18  1  0  0  0  0
M  END
> <PUBCHEM_COMPOUND_CID>
11360

> <PUBCHEM_CONFORMER_RMSD>
0.4

> <PUBCHEM_CONFORMER_DIVERSEORDER>
1

> <PUBCHEM_MMFF94_PARTIAL_CHARGES>
18
1 -0.57
10 -0.15
11 -0.05
12 0.15
13 0.15
14 0.4
15 0.15
16 0.15
17 0.15
18 0.15
2 -0.6
3 0.01
4 0.1
5 0.54
6 -0.15
7 -0.15
8 -0.14
9 -0.15

> <PUBCHEM_EFFECTIVE_ROTOR_COUNT>
0

> <PUBCHEM_PHARMACOPHORE_FEATURES>
5
1 1 acceptor
1 2 cation
1 2 donor
6 2 3 4 7 10 11 rings
6 3 4 5 6 8 9 rings

> <PUBCHEM_HEAVY_ATOM_COUNT>
11

> <PUBCHEM_ATOM_DEF_STEREO_COUNT>
0

> <PUBCHEM_ATOM_UDEF_STEREO_COUNT>
0

> <PUBCHEM_BOND_DEF_STEREO_COUNT>
0

> <PUBCHEM_BOND_UDEF_STEREO_COUNT>
0

> <PUBCHEM_ISOTOPIC_ATOM_COUNT>
0

> <PUBCHEM_COMPONENT_COUNT>
1

> <PUBCHEM_CACTVS_TAUTO_COUNT>
3

> <PUBCHEM_CONFORMER_ID>
00002C6000000001

> <PUBCHEM_MMFF94_ENERGY>
30.2115

> <PUBCHEM_FEATURE_SELFOVERLAP>
25.396

> <PUBCHEM_SHAPE_FINGERPRINT>
12423570 1 6661762767497481431
12524768 44 18336542827987511951
12897270 3 18339079285274606781
16945 1 18410573950881493989
17990270 104 18411138051859835386
18185500 45 18409731755002406934
193761 8 15312098953417687813
19973954 147 18410571807782386649
20201158 50 18412267224563412531
21040471 1 17834113039870138788
23402655 69 18336279993939012725
23463225 33 18342746200030511360
23552423 10 18342173349644625335
23559900 14 17109317642659456518
241688 4 18051129490883610376
2748010 2 18266742565575398175
5084963 1 17898281715092798712
528886 8 18266182725204711880
53812653 166 18334298626023798992
66348 1 18410009961456205846
7364860 26 18333169483711864782

> <PUBCHEM_SHAPE_MULTIPOLES>
215.52
3.57
2.02
0.6
0.84
0.26
0
-0.04
0
-0.57
0
0
-0.01
0

> <PUBCHEM_SHAPE_SELFOVERLAP>
469.857

> <PUBCHEM_SHAPE_VOLUME>
115.4

> <PUBCHEM_COORDINATE_TYPE>
2
5
10

$$$$

