6033
  -OEChem-06261201033D

 81 82  0     1  0  0  0  0  0999 V2000
    3.1490    0.0347    0.4449 O   0  0  0  0  0  0  0  0  0  0  0  0
   -0.7995    3.8017    1.2990 O   0  0  0  0  0  0  0  0  0  0  0  0
    3.6295   -0.2274   -0.8872 C   0  0  1  0  0  0  0  0  0  0  0  0
    2.7059   -1.2565   -1.5563 C   0  0  0  0  0  0  0  0  0  0  0  0
    3.7704    1.0654   -1.7071 C   0  0  0  0  0  0  0  0  0  0  0  0
    2.1592   -2.2641   -0.5431 C   0  0  0  0  0  0  0  0  0  0  0  0
    0.6814   -4.3620   -0.2673 C   0  0  1  0  0  0  0  0  0  0  0  0
    1.2135   -3.2648   -1.2162 C   0  0  0  0  0  0  0  0  0  0  0  0
    2.4505    1.8194   -1.7872 C   0  0  0  0  0  0  0  0  0  0  0  0
   -0.0869   -3.7611    0.9292 C   0  0  0  0  0  0  0  0  0  0  0  0
    5.0191   -0.8583   -0.7152 C   0  0  0  0  0  0  0  0  0  0  0  0
    1.8075    1.8808   -0.4335 C   0  0  0  0  0  0  0  0  0  0  0  0
   -1.3267   -2.9552    0.5256 C   0  0  0  0  0  0  0  0  0  0  0  0
    2.1818    0.9950    0.5838 C   0  0  0  0  0  0  0  0  0  0  0  0
   -2.0749   -2.3432    1.7185 C   0  0  0  0  0  0  0  0  0  0  0  0
   -3.3752   -1.5710    1.3945 C   0  0  2  0  0  0  0  0  0  0  0  0
   -0.1871   -5.3354   -1.0730 C   0  0  0  0  0  0  0  0  0  0  0  0
   -3.1172   -0.3986    0.4248 C   0  0  0  0  0  0  0  0  0  0  0  0
    0.7940    2.8166   -0.1860 C   0  0  0  0  0  0  0  0  0  0  0  0
    1.5739    1.0706    1.8402 C   0  0  0  0  0  0  0  0  0  0  0  0
   -4.3593    0.3784   -0.0310 C   0  0  0  0  0  0  0  0  0  0  0  0
    0.5753    2.0131    2.0801 C   0  0  0  0  0  0  0  0  0  0  0  0
   -4.0006   -1.0888    2.7098 C   0  0  0  0  0  0  0  0  0  0  0  0
    0.1826    2.8836    1.0661 C   0  0  0  0  0  0  0  0  0  0  0  0
   -4.1024    1.5062   -1.0380 C   0  0  0  0  0  0  0  0  0  0  0  0
   -3.3903    1.0906   -2.3393 C   0  0  0  0  0  0  0  0  0  0  0  0
    0.3523    3.7661   -1.2568 C   0  0  0  0  0  0  0  0  0  0  0  0
    2.0001    0.1429    2.9357 C   0  0  0  0  0  0  0  0  0  0  0  0
   -0.0755    2.0968    3.4242 C   0  0  0  0  0  0  0  0  0  0  0  0
   -3.1196    2.2794   -3.2619 C   0  0  0  0  0  0  0  0  0  0  0  0
   -4.2307    0.0453   -3.0772 C   0  0  0  0  0  0  0  0  0  0  0  0
    1.8383   -0.7645   -2.0083 H   0  0  0  0  0  0  0  0  0  0  0  0
    3.2227   -1.7666   -2.3785 H   0  0  0  0  0  0  0  0  0  0  0  0
    4.1431    0.8561   -2.7167 H   0  0  0  0  0  0  0  0  0  0  0  0
    4.5076    1.7197   -1.2208 H   0  0  0  0  0  0  0  0  0  0  0  0
    1.6002   -1.7433    0.2377 H   0  0  0  0  0  0  0  0  0  0  0  0
    2.9766   -2.8107   -0.0612 H   0  0  0  0  0  0  0  0  0  0  0  0
    1.5359   -4.9227    0.1330 H   0  0  0  0  0  0  0  0  0  0  0  0
    1.7618   -3.7574   -2.0307 H   0  0  0  0  0  0  0  0  0  0  0  0
    0.3865   -2.7303   -1.6982 H   0  0  0  0  0  0  0  0  0  0  0  0
    1.7689    1.3418   -2.4990 H   0  0  0  0  0  0  0  0  0  0  0  0
    2.6678    2.8260   -2.1631 H   0  0  0  0  0  0  0  0  0  0  0  0
    0.5788   -3.1424    1.5409 H   0  0  0  0  0  0  0  0  0  0  0  0
   -0.4052   -4.5839    1.5828 H   0  0  0  0  0  0  0  0  0  0  0  0
    5.6980   -0.1609   -0.2101 H   0  0  0  0  0  0  0  0  0  0  0  0
    4.9847   -1.7512   -0.0821 H   0  0  0  0  0  0  0  0  0  0  0  0
    5.4640   -1.1305   -1.6782 H   0  0  0  0  0  0  0  0  0  0  0  0
   -2.0276   -3.5889   -0.0279 H   0  0  0  0  0  0  0  0  0  0  0  0
   -1.0197   -2.1458   -0.1413 H   0  0  0  0  0  0  0  0  0  0  0  0
   -2.3177   -3.1537    2.4184 H   0  0  0  0  0  0  0  0  0  0  0  0
   -1.3863   -1.6740    2.2519 H   0  0  0  0  0  0  0  0  0  0  0  0
   -4.0756   -2.2688    0.9179 H   0  0  0  0  0  0  0  0  0  0  0  0
   -0.9918   -4.8247   -1.6110 H   0  0  0  0  0  0  0  0  0  0  0  0
   -0.6346   -6.0907   -0.4186 H   0  0  0  0  0  0  0  0  0  0  0  0
    0.4216   -5.8608   -1.8173 H   0  0  0  0  0  0  0  0  0  0  0  0
   -2.4035    0.3017    0.8772 H   0  0  0  0  0  0  0  0  0  0  0  0
   -2.6362   -0.8008   -0.4706 H   0  0  0  0  0  0  0  0  0  0  0  0
   -5.0950   -0.3232   -0.4408 H   0  0  0  0  0  0  0  0  0  0  0  0
   -4.8360    0.8340    0.8449 H   0  0  0  0  0  0  0  0  0  0  0  0
   -4.9922   -0.6575    2.5432 H   0  0  0  0  0  0  0  0  0  0  0  0
   -4.1260   -1.9217    3.4101 H   0  0  0  0  0  0  0  0  0  0  0  0
   -3.3739   -0.3313    3.1926 H   0  0  0  0  0  0  0  0  0  0  0  0
   -5.0614    1.9822   -1.2802 H   0  0  0  0  0  0  0  0  0  0  0  0
   -3.4961    2.2755   -0.5420 H   0  0  0  0  0  0  0  0  0  0  0  0
   -2.4165    0.6494   -2.0978 H   0  0  0  0  0  0  0  0  0  0  0  0
    0.2129    3.2456   -2.2102 H   0  0  0  0  0  0  0  0  0  0  0  0
   -0.6096    4.2403   -1.0371 H   0  0  0  0  0  0  0  0  0  0  0  0
    1.0950    4.5603   -1.3846 H   0  0  0  0  0  0  0  0  0  0  0  0
    2.2668    0.7041    3.8381 H   0  0  0  0  0  0  0  0  0  0  0  0
    2.8854   -0.4500    2.6867 H   0  0  0  0  0  0  0  0  0  0  0  0
    1.1982   -0.5675    3.1641 H   0  0  0  0  0  0  0  0  0  0  0  0
    0.3007    2.9680    3.9705 H   0  0  0  0  0  0  0  0  0  0  0  0
   -1.1643    2.1768    3.3239 H   0  0  0  0  0  0  0  0  0  0  0  0
    0.0776    1.2164    4.0527 H   0  0  0  0  0  0  0  0  0  0  0  0
   -4.0532    2.7605   -3.5727 H   0  0  0  0  0  0  0  0  0  0  0  0
   -2.5835    1.9623   -4.1625 H   0  0  0  0  0  0  0  0  0  0  0  0
   -2.5060    3.0301   -2.7533 H   0  0  0  0  0  0  0  0  0  0  0  0
   -5.2430    0.4137   -3.2756 H   0  0  0  0  0  0  0  0  0  0  0  0
   -4.3086   -0.8857   -2.5078 H   0  0  0  0  0  0  0  0  0  0  0  0
   -3.7723   -0.2083   -4.0396 H   0  0  0  0  0  0  0  0  0  0  0  0
   -0.9375    3.9303    2.2502 H   0  0  0  0  0  0  0  0  0  0  0  0
  1  3  1  0  0  0  0
  1 14  1  0  0  0  0
  2 24  1  0  0  0  0
  2 81  1  0  0  0  0
  3  4  1  0  0  0  0
  3  5  1  0  0  0  0
  3 11  1  0  0  0  0
  4  6  1  0  0  0  0
  4 32  1  0  0  0  0
  4 33  1  0  0  0  0
  5  9  1  0  0  0  0
  5 34  1  0  0  0  0
  5 35  1  0  0  0  0
  6  8  1  0  0  0  0
  6 36  1  0  0  0  0
  6 37  1  0  0  0  0
  7  8  1  0  0  0  0
  7 10  1  0  0  0  0
  7 17  1  0  0  0  0
  7 38  1  0  0  0  0
  8 39  1  0  0  0  0
  8 40  1  0  0  0  0
  9 12  1  0  0  0  0
  9 41  1  0  0  0  0
  9 42  1  0  0  0  0
 10 13  1  0  0  0  0
 10 43  1  0  0  0  0
 10 44  1  0  0  0  0
 11 45  1  0  0  0  0
 11 46  1  0  0  0  0
 11 47  1  0  0  0  0
 12 14  2  0  0  0  0
 12 19  1  0  0  0  0
 13 15  1  0  0  0  0
 13 48  1  0  0  0  0
 13 49  1  0  0  0  0
 14 20  1  0  0  0  0
 15 16  1  0  0  0  0
 15 50  1  0  0  0  0
 15 51  1  0  0  0  0
 16 18  1  0  0  0  0
 16 23  1  0  0  0  0
 16 52  1  0  0  0  0
 17 53  1  0  0  0  0
 17 54  1  0  0  0  0
 17 55  1  0  0  0  0
 18 21  1  0  0  0  0
 18 56  1  0  0  0  0
 18 57  1  0  0  0  0
 19 24  2  0  0  0  0
 19 27  1  0  0  0  0
 20 22  2  0  0  0  0
 20 28  1  0  0  0  0
 21 25  1  0  0  0  0
 21 58  1  0  0  0  0
 21 59  1  0  0  0  0
 22 24  1  0  0  0  0
 22 29  1  0  0  0  0
 23 60  1  0  0  0  0
 23 61  1  0  0  0  0
 23 62  1  0  0  0  0
 25 26  1  0  0  0  0
 25 63  1  0  0  0  0
 25 64  1  0  0  0  0
 26 30  1  0  0  0  0
 26 31  1  0  0  0  0
 26 65  1  0  0  0  0
 27 66  1  0  0  0  0
 27 67  1  0  0  0  0
 27 68  1  0  0  0  0
 28 69  1  0  0  0  0
 28 70  1  0  0  0  0
 28 71  1  0  0  0  0
 29 72  1  0  0  0  0
 29 73  1  0  0  0  0
 29 74  1  0  0  0  0
 30 75  1  0  0  0  0
 30 76  1  0  0  0  0
 30 77  1  0  0  0  0
 31 78  1  0  0  0  0
 31 79  1  0  0  0  0
 31 80  1  0  0  0  0
M  END
> <PUBCHEM_COMPOUND_CID>
6033

> <PUBCHEM_CONFORMER_RMSD>
1.6

> <PUBCHEM_CONFORMER_DIVERSEORDER>
10
37
68
79
66
33
61
4
46
2
58
32
14
69
40
56
31
78
26
36
62
39
17
67
43
12
38
34
29
7
54
76
72
48
35
30
51
55
16
23
1
44
73
9
71
45
59
65
57
50
20
77
75
41
5
70
64
63
19
27
80
60
52
3
6
53
21
49
13
18
47
11
42
25
74
15
28
22
24
8

> <PUBCHEM_MMFF94_PARTIAL_CHARGES>
14
1 -0.36
12 -0.14
14 0.08
19 -0.14
2 -0.53
20 -0.14
22 -0.14
24 0.08
27 0.14
28 0.14
29 0.14
3 0.28
81 0.45
9 0.14

> <PUBCHEM_EFFECTIVE_ROTOR_COUNT>
12.8

> <PUBCHEM_PHARMACOPHORE_FEATURES>
7
1 1 acceptor
1 17 hydrophobe
1 2 donor
1 23 hydrophobe
3 26 30 31 hydrophobe
6 1 3 5 9 12 14 rings
6 12 14 19 20 22 24 rings

> <PUBCHEM_HEAVY_ATOM_COUNT>
31

> <PUBCHEM_ATOM_DEF_STEREO_COUNT>
3

> <PUBCHEM_ATOM_UDEF_STEREO_COUNT>
0

> <PUBCHEM_BOND_DEF_STEREO_COUNT>
0

> <PUBCHEM_BOND_UDEF_STEREO_COUNT>
0

> <PUBCHEM_ISOTOPIC_ATOM_COUNT>
0

> <PUBCHEM_COMPONENT_COUNT>
1

> <PUBCHEM_CACTVS_TAUTO_COUNT>
9

> <PUBCHEM_CONFORMER_ID>
000017910000000A

> <PUBCHEM_MMFF94_ENERGY>
75.5342

> <PUBCHEM_FEATURE_SELFOVERLAP>
35.549

> <PUBCHEM_SHAPE_FINGERPRINT>
12100795 323 17909542862008850607
12156800 1 14681357407937267379
13402501 40 18272362084138670767
13422730 73 18192459440340133023
13947920 24 18271793632400695940
14251757 17 17915454106997199381
144659 39 18058187045922724456
151778 21 17832109785629760859
17921350 177 17988936543228926375
20764821 26 18410854356696399071
20775530 9 17542797854718134246
238 59 18265635224692136439
3027735 51 18120083137757937976
35225 105 17413629105899052071
5283178 26 18265316331928427819
6287921 2 16464994439392328257

> <PUBCHEM_SHAPE_MULTIPOLES>
626.23
7.64
6.06
3.43
3.32
5.71
0.67
-0.6
-3.7
0.05
-0.92
2.49
-1.94
2.46

> <PUBCHEM_SHAPE_SELFOVERLAP>
1256.162

> <PUBCHEM_SHAPE_VOLUME>
371.9

> <PUBCHEM_COORDINATE_TYPE>
2
5
10

$$$$

