17396288
  -OEChem-06241222553D

 39 42  0     1  0  0  0  0  0999 V2000
   -0.7224    1.9226    0.2825 S   0  0  0  0  0  0  0  0  0  0  0  0
    3.5768    0.2334   -2.3961 S   0  0  0  0  0  0  0  0  0  0  0  0
   -0.7475   -0.6956    1.7296 O   0  0  0  0  0  0  0  0  0  0  0  0
    3.6498    1.1131    2.4494 O   0  0  0  0  0  0  0  0  0  0  0  0
   -0.8683   -1.9189   -0.2337 N   0  0  0  0  0  0  0  0  0  0  0  0
    1.6556    1.4566    1.3146 N   0  0  0  0  0  0  0  0  0  0  0  0
    1.4219    1.0834   -1.0349 N   0  0  0  0  0  0  0  0  0  0  0  0
   -0.3809   -3.1520    0.3157 C   0  0  0  0  0  0  0  0  0  0  0  0
    0.2723   -4.1856   -0.5541 C   0  0  0  0  0  0  0  0  0  0  0  0
    1.0909   -3.4166    0.4411 C   0  0  0  0  0  0  0  0  0  0  0  0
   -1.0152   -0.7686    0.5315 C   0  0  0  0  0  0  0  0  0  0  0  0
   -1.5241    0.4102   -0.2904 C   0  0  1  0  0  0  0  0  0  0  0  0
   -3.0343    0.5157   -0.2708 C   0  0  0  0  0  0  0  0  0  0  0  0
   -3.7100    1.0545   -1.3658 C   0  0  0  0  0  0  0  0  0  0  0  0
   -3.7503    0.0738    0.8419 C   0  0  0  0  0  0  0  0  0  0  0  0
    0.9441    1.4318    0.1217 C   0  0  0  0  0  0  0  0  0  0  0  0
   -5.1014    1.1516   -1.3480 C   0  0  0  0  0  0  0  0  0  0  0  0
   -5.1416    0.1708    0.8596 C   0  0  0  0  0  0  0  0  0  0  0  0
    3.5566    0.7068    0.1246 C   0  0  0  0  0  0  0  0  0  0  0  0
    2.7370    0.7268   -0.9916 C   0  0  0  0  0  0  0  0  0  0  0  0
    3.0003    1.1003    1.4095 C   0  0  0  0  0  0  0  0  0  0  0  0
   -5.8172    0.7098   -0.2354 C   0  0  0  0  0  0  0  0  0  0  0  0
    4.8802    0.2825   -0.1810 C   0  0  0  0  0  0  0  0  0  0  0  0
    5.0277   -0.0067   -1.5198 C   0  0  0  0  0  0  0  0  0  0  0  0
   -1.0187   -3.5295    1.1090 H   0  0  0  0  0  0  0  0  0  0  0  0
    0.4177   -3.9618   -1.6038 H   0  0  0  0  0  0  0  0  0  0  0  0
    0.0675   -5.2276   -0.3413 H   0  0  0  0  0  0  0  0  0  0  0  0
    1.4357   -3.9397    1.3245 H   0  0  0  0  0  0  0  0  0  0  0  0
    1.7831   -2.6762    0.0589 H   0  0  0  0  0  0  0  0  0  0  0  0
   -1.1235   -1.9111   -1.2174 H   0  0  0  0  0  0  0  0  0  0  0  0
   -1.2125    0.2557   -1.3317 H   0  0  0  0  0  0  0  0  0  0  0  0
   -3.1645    1.4030   -2.2388 H   0  0  0  0  0  0  0  0  0  0  0  0
   -3.2630   -0.3360    1.7204 H   0  0  0  0  0  0  0  0  0  0  0  0
    1.1726    1.7470    2.1596 H   0  0  0  0  0  0  0  0  0  0  0  0
   -5.6275    1.5716   -2.2003 H   0  0  0  0  0  0  0  0  0  0  0  0
   -5.6993   -0.1695    1.7272 H   0  0  0  0  0  0  0  0  0  0  0  0
   -6.9004    0.7864   -0.2211 H   0  0  0  0  0  0  0  0  0  0  0  0
    5.6852    0.1923    0.5371 H   0  0  0  0  0  0  0  0  0  0  0  0
    5.9198   -0.3482   -2.0256 H   0  0  0  0  0  0  0  0  0  0  0  0
  1 12  1  0  0  0  0
  1 16  1  0  0  0  0
  2 20  1  0  0  0  0
  2 24  1  0  0  0  0
  3 11  2  0  0  0  0
  4 21  2  0  0  0  0
  5  8  1  0  0  0  0
  5 11  1  0  0  0  0
  5 30  1  0  0  0  0
  6 16  1  0  0  0  0
  6 21  1  0  0  0  0
  6 34  1  0  0  0  0
  7 16  2  0  0  0  0
  7 20  1  0  0  0  0
  8  9  1  0  0  0  0
  8 10  1  0  0  0  0
  8 25  1  0  0  0  0
  9 10  1  0  0  0  0
  9 26  1  0  0  0  0
  9 27  1  0  0  0  0
 10 28  1  0  0  0  0
 10 29  1  0  0  0  0
 11 12  1  0  0  0  0
 12 13  1  0  0  0  0
 12 31  1  0  0  0  0
 13 14  2  0  0  0  0
 13 15  1  0  0  0  0
 14 17  1  0  0  0  0
 14 32  1  0  0  0  0
 15 18  2  0  0  0  0
 15 33  1  0  0  0  0
 17 22  2  0  0  0  0
 17 35  1  0  0  0  0
 18 22  1  0  0  0  0
 18 36  1  0  0  0  0
 19 20  2  0  0  0  0
 19 21  1  0  0  0  0
 19 23  1  0  0  0  0
 22 37  1  0  0  0  0
 23 24  2  0  0  0  0
 23 38  1  0  0  0  0
 24 39  1  0  0  0  0
M  END
> <PUBCHEM_COMPOUND_CID>
17396288

> <PUBCHEM_CONFORMER_RMSD>
0.8

> <PUBCHEM_CONFORMER_DIVERSEORDER>
1
16
139
124
97
158
27
98
170
96
126
118
24
122
74
26
141
151
103
167
147
161
120
160
142
17
164
18
117
163
23
152
79
8
93
21
156
95
37
87
61
153
71
70
58
111
86
91
157
144
130
83
113
162
89
143
110
84
125
36
31
169
112
12
85
166
29
56
102
155
101
7
168
62
41
22
25
53
119
10
148
121
73
138
32
69
28
99
9
145
107
82
78
38
150
108
88
100
54
127
30
159
51
149
34
132
136
11
33
80
81
165
131
135
76
35
46
140
57
146
114
133
77
5
109
134
105
52
154
104
90
50
128
13
66
68
42
6
75
49
129
116
15
94
55
45
92
137
65
115
19
63
48
14
4
20
47
3
59
123
40
2
39
67
43
106
72
44
64
60

> <PUBCHEM_MMFF94_PARTIAL_CHARGES>
38
1 -0.37
10 -0.2
11 0.57
12 0.43
13 -0.14
14 -0.15
15 -0.15
16 0.65
17 -0.15
18 -0.15
19 -0.09
2 -0.08
20 0.17
21 0.72
22 -0.15
23 -0.15
24 -0.11
25 0.1
26 0.1
27 0.1
28 0.1
29 0.1
3 -0.57
30 0.37
32 0.15
33 0.15
34 0.37
35 0.15
36 0.15
37 0.15
38 0.15
39 0.15
4 -0.57
5 -0.58
6 -0.49
7 -0.58
8 0.05
9 -0.2

> <PUBCHEM_EFFECTIVE_ROTOR_COUNT>
6.6

> <PUBCHEM_PHARMACOPHORE_FEATURES>
7
1 3 acceptor
1 4 acceptor
1 5 donor
1 6 donor
5 2 19 20 23 24 rings
6 13 14 15 17 18 22 rings
6 6 7 16 19 20 21 rings

> <PUBCHEM_HEAVY_ATOM_COUNT>
24

> <PUBCHEM_ATOM_DEF_STEREO_COUNT>
0

> <PUBCHEM_ATOM_UDEF_STEREO_COUNT>
1

> <PUBCHEM_BOND_DEF_STEREO_COUNT>
0

> <PUBCHEM_BOND_UDEF_STEREO_COUNT>
0

> <PUBCHEM_ISOTOPIC_ATOM_COUNT>
0

> <PUBCHEM_COMPONENT_COUNT>
1

> <PUBCHEM_CACTVS_TAUTO_COUNT>
8

> <PUBCHEM_CONFORMER_ID>
0109724000000001

> <PUBCHEM_MMFF94_ENERGY>
50.8458

> <PUBCHEM_FEATURE_SELFOVERLAP>
35.602

> <PUBCHEM_SHAPE_FINGERPRINT>
10366900 7 17531513322844683892
107951 10 17417797431868717314
11488393 25 18197209463479286803
11578080 2 18050558556924342612
11963148 33 18130791097683445075
12107183 9 15479610379123724477
12156800 1 15723950252739152798
12236239 1 17060339621678013508
12592029 89 18413105082799863515
12596602 18 5256407176483864286
12597179 24 17968952868550848504
12895836 83 18058434427343376116
12895837 130 17342634692809203140
133893 2 17841418534147794762
13544592 145 18187643583520714248
14931854 50 18120350298395239686
16752209 62 18198342853529245474
1813 80 10375872995786901979
18186145 218 18259988154341109609
18681886 176 18202278074839371052
200 152 15502091959910646421
20028762 73 18044652002298802687
20511986 3 14779555624832880037
20645476 183 16988839437006145328
20832881 197 17749941280072875440
21033648 29 18336559252016954697
21781051 124 18201144490966971707
22393880 68 18186809093092440493
22956985 138 17772199858001755675
23559900 14 17700699729475632723
249057 3 18271796897103511140
266924 87 18196089065356731445
3298306 158 18342739632825257023
340366 18 18058436634924878868
3729539 64 18191291874697569678
465052 167 17418085491267266673
508706 21 18269547261204704407
5265222 85 18199450092398734540
5385378 56 18339072813328792571
633830 44 18040435482242418521
6669772 16 18114476591051505762
81228 2 17619073832954560523

> <PUBCHEM_SHAPE_MULTIPOLES>
474.93
10.89
3.14
1.77
6.39
5.63
0.02
-5.26
-2.72
-0.66
0.08
-1.63
-0.61
0.99

> <PUBCHEM_SHAPE_SELFOVERLAP>
1005.936

> <PUBCHEM_SHAPE_VOLUME>
267.8

> <PUBCHEM_COORDINATE_TYPE>
2
5
10

$$$$

