17395760
  -OEChem-06241222523D

 60 61  0     0  0  0  0  0  0999 V2000
   -2.2293   -2.0841    1.0008 S   0  0  0  0  0  0  0  0  0  0  0  0
   -1.2658   -1.8835    2.0674 O   0  0  0  0  0  0  0  0  0  0  0  0
   -3.3871   -2.9275    1.2343 O   0  0  0  0  0  0  0  0  0  0  0  0
   -0.1059    2.4338   -1.5434 O   0  0  0  0  0  0  0  0  0  0  0  0
    2.7774   -0.2545    1.8214 O   0  0  0  0  0  0  0  0  0  0  0  0
    4.8369    0.7418    1.5674 O   0  0  0  0  0  0  0  0  0  0  0  0
   -1.4097   -2.6141   -0.4209 N   0  0  0  0  0  0  0  0  0  0  0  0
   -1.7111    3.0402    0.5970 N   0  0  0  0  0  0  0  0  0  0  0  0
    1.5018    1.6237   -0.0353 N   0  0  0  0  0  0  0  0  0  0  0  0
   -2.8300   -0.4866    0.5278 C   0  0  0  0  0  0  0  0  0  0  0  0
   -0.0484   -2.0780   -0.6761 C   0  0  0  0  0  0  0  0  0  0  0  0
   -2.2009   -2.7393   -1.6714 C   0  0  0  0  0  0  0  0  0  0  0  0
   -2.0450    0.6461    0.7430 C   0  0  0  0  0  0  0  0  0  0  0  0
   -2.5187    1.9042    0.3706 C   0  0  0  0  0  0  0  0  0  0  0  0
   -4.0888   -0.3614   -0.0601 C   0  0  0  0  0  0  0  0  0  0  0  0
   -3.7776    2.0293   -0.2171 C   0  0  0  0  0  0  0  0  0  0  0  0
   -4.5626    0.8963   -0.4324 C   0  0  0  0  0  0  0  0  0  0  0  0
    0.9839   -2.9657   -0.0109 C   0  0  0  0  0  0  0  0  0  0  0  0
   -1.5991   -3.8158   -2.5518 C   0  0  0  0  0  0  0  0  0  0  0  0
   -4.3100    3.3640   -0.6263 C   0  0  0  0  0  0  0  0  0  0  0  0
   -0.2982    2.9593    0.7965 C   0  0  0  0  0  0  0  0  0  0  0  0
    0.3585    2.3227   -0.4132 C   0  0  0  0  0  0  0  0  0  0  0  0
    2.3847    0.8981   -0.8700 C   0  0  0  0  0  0  0  0  0  0  0  0
    3.4985    0.2447   -0.3422 C   0  0  0  0  0  0  0  0  0  0  0  0
    2.1286    0.8435   -2.2402 C   0  0  0  0  0  0  0  0  0  0  0  0
    4.3558   -0.4633   -1.1846 C   0  0  0  0  0  0  0  0  0  0  0  0
    2.9859    0.1353   -3.0824 C   0  0  0  0  0  0  0  0  0  0  0  0
    4.0995   -0.5179   -2.5546 C   0  0  0  0  0  0  0  0  0  0  0  0
    3.7959    0.2821    1.0843 C   0  0  0  0  0  0  0  0  0  0  0  0
    2.9513   -0.2738    3.2423 C   0  0  0  0  0  0  0  0  0  0  0  0
    1.7296   -0.8998    3.8803 C   0  0  0  0  0  0  0  0  0  0  0  0
    0.1745   -1.9838   -1.7424 H   0  0  0  0  0  0  0  0  0  0  0  0
    0.0336   -1.0637   -0.2763 H   0  0  0  0  0  0  0  0  0  0  0  0
   -2.2337   -1.7820   -2.2025 H   0  0  0  0  0  0  0  0  0  0  0  0
   -3.2285   -3.0319   -1.4324 H   0  0  0  0  0  0  0  0  0  0  0  0
   -1.0781    0.5267    1.2205 H   0  0  0  0  0  0  0  0  0  0  0  0
   -4.7156   -1.2300   -0.2401 H   0  0  0  0  0  0  0  0  0  0  0  0
   -5.5452    0.9756   -0.8898 H   0  0  0  0  0  0  0  0  0  0  0  0
    0.8517   -3.0086    1.0736 H   0  0  0  0  0  0  0  0  0  0  0  0
    0.9211   -3.9898   -0.3937 H   0  0  0  0  0  0  0  0  0  0  0  0
    1.9925   -2.5922   -0.2107 H   0  0  0  0  0  0  0  0  0  0  0  0
   -0.6158   -3.5460   -2.9462 H   0  0  0  0  0  0  0  0  0  0  0  0
   -1.4920   -4.7578   -2.0031 H   0  0  0  0  0  0  0  0  0  0  0  0
   -2.2511   -4.0001   -3.4121 H   0  0  0  0  0  0  0  0  0  0  0  0
   -2.1069    3.9506    0.3946 H   0  0  0  0  0  0  0  0  0  0  0  0
   -0.0591    2.4334    1.7272 H   0  0  0  0  0  0  0  0  0  0  0  0
    0.1143    3.9704    0.8923 H   0  0  0  0  0  0  0  0  0  0  0  0
   -4.4182    4.0181    0.2452 H   0  0  0  0  0  0  0  0  0  0  0  0
   -3.6458    3.8358   -1.3581 H   0  0  0  0  0  0  0  0  0  0  0  0
   -5.2973    3.2816   -1.0941 H   0  0  0  0  0  0  0  0  0  0  0  0
    1.7456    1.6326    0.9517 H   0  0  0  0  0  0  0  0  0  0  0  0
    1.2915    1.3181   -2.7302 H   0  0  0  0  0  0  0  0  0  0  0  0
    5.2263   -0.9785   -0.7865 H   0  0  0  0  0  0  0  0  0  0  0  0
    2.7871    0.0911   -4.1494 H   0  0  0  0  0  0  0  0  0  0  0  0
    4.7664   -1.0699   -3.2103 H   0  0  0  0  0  0  0  0  0  0  0  0
    3.0765    0.7517    3.6068 H   0  0  0  0  0  0  0  0  0  0  0  0
    3.8425   -0.8602    3.4916 H   0  0  0  0  0  0  0  0  0  0  0  0
    1.8291   -0.9318    4.9687 H   0  0  0  0  0  0  0  0  0  0  0  0
    1.5797   -1.9186    3.5082 H   0  0  0  0  0  0  0  0  0  0  0  0
    0.8292   -0.3317    3.6239 H   0  0  0  0  0  0  0  0  0  0  0  0
  1  2  2  0  0  0  0
  1  3  2  0  0  0  0
  1  7  1  0  0  0  0
  1 10  1  0  0  0  0
  4 22  2  0  0  0  0
  5 29  1  0  0  0  0
  5 30  1  0  0  0  0
  6 29  2  0  0  0  0
  7 11  1  0  0  0  0
  7 12  1  0  0  0  0
  8 14  1  0  0  0  0
  8 21  1  0  0  0  0
  8 45  1  0  0  0  0
  9 22  1  0  0  0  0
  9 23  1  0  0  0  0
  9 51  1  0  0  0  0
 10 13  2  0  0  0  0
 10 15  1  0  0  0  0
 11 18  1  0  0  0  0
 11 32  1  0  0  0  0
 11 33  1  0  0  0  0
 12 19  1  0  0  0  0
 12 34  1  0  0  0  0
 12 35  1  0  0  0  0
 13 14  1  0  0  0  0
 13 36  1  0  0  0  0
 14 16  2  0  0  0  0
 15 17  2  0  0  0  0
 15 37  1  0  0  0  0
 16 17  1  0  0  0  0
 16 20  1  0  0  0  0
 17 38  1  0  0  0  0
 18 39  1  0  0  0  0
 18 40  1  0  0  0  0
 18 41  1  0  0  0  0
 19 42  1  0  0  0  0
 19 43  1  0  0  0  0
 19 44  1  0  0  0  0
 20 48  1  0  0  0  0
 20 49  1  0  0  0  0
 20 50  1  0  0  0  0
 21 22  1  0  0  0  0
 21 46  1  0  0  0  0
 21 47  1  0  0  0  0
 23 24  1  0  0  0  0
 23 25  2  0  0  0  0
 24 26  2  0  0  0  0
 24 29  1  0  0  0  0
 25 27  1  0  0  0  0
 25 52  1  0  0  0  0
 26 28  1  0  0  0  0
 26 53  1  0  0  0  0
 27 28  2  0  0  0  0
 27 54  1  0  0  0  0
 28 55  1  0  0  0  0
 30 31  1  0  0  0  0
 30 56  1  0  0  0  0
 30 57  1  0  0  0  0
 31 58  1  0  0  0  0
 31 59  1  0  0  0  0
 31 60  1  0  0  0  0
M  END
> <PUBCHEM_COMPOUND_CID>
17395760

> <PUBCHEM_CONFORMER_RMSD>
1.2

> <PUBCHEM_CONFORMER_DIVERSEORDER>
1
15
4
18
11
26
25
8
35
36
29
10
16
34
33
27
22
24
23
32
2
37
28
12
30
14
9
21
13
19
17
3
31
5
20
6
7

> <PUBCHEM_MMFF94_PARTIAL_CHARGES>
37
1 1.45
10 -0.01
11 0.36
12 0.36
13 -0.15
14 0.1
15 -0.15
16 -0.14
17 -0.15
2 -0.65
20 0.14
21 0.43
22 0.57
23 0.12
24 0.09
25 -0.15
26 -0.15
27 -0.15
28 -0.15
29 0.63
3 -0.65
30 0.28
36 0.15
37 0.15
38 0.15
4 -0.57
45 0.4
5 -0.43
51 0.37
52 0.15
53 0.15
54 0.15
55 0.15
6 -0.57
7 -0.85
8 -0.87
9 -0.55

> <PUBCHEM_EFFECTIVE_ROTOR_COUNT>
12

> <PUBCHEM_PHARMACOPHORE_FEATURES>
9
1 2 acceptor
1 3 acceptor
1 4 acceptor
1 6 acceptor
1 8 cation
1 8 donor
1 9 donor
6 10 13 14 15 16 17 rings
6 23 24 25 26 27 28 rings

> <PUBCHEM_HEAVY_ATOM_COUNT>
31

> <PUBCHEM_ATOM_DEF_STEREO_COUNT>
0

> <PUBCHEM_ATOM_UDEF_STEREO_COUNT>
0

> <PUBCHEM_BOND_DEF_STEREO_COUNT>
0

> <PUBCHEM_BOND_UDEF_STEREO_COUNT>
0

> <PUBCHEM_ISOTOPIC_ATOM_COUNT>
0

> <PUBCHEM_COMPONENT_COUNT>
1

> <PUBCHEM_CACTVS_TAUTO_COUNT>
3

> <PUBCHEM_CONFORMER_ID>
0109703000000001

> <PUBCHEM_MMFF94_ENERGY>
79.6086

> <PUBCHEM_FEATURE_SELFOVERLAP>
45.688

> <PUBCHEM_SHAPE_FINGERPRINT>
10366900 7 16877659072032452248
11513181 2 18045237169421532191
11578080 2 17241607208607883306
12156800 1 17181159444079342855
12553582 1 18268974497097875033
12633257 1 16343988005083127402
12788726 201 18194681467118489453
13583140 156 16009315275570571534
13726171 33 18053345925858394596
14114206 34 17987512602656688238
14251757 17 17967800687486069590
16752209 62 18340758312581841453
19026451 147 17254293219404235878
20511986 3 17988657297641617740
20600515 1 18409171012942595208
21033648 29 17822015319482570833
21781051 124 18059281077799543419
23559900 14 18051972816222980215
27425 322 16482982771444877461
3052486 1 18412537692029443910
3298306 158 18339919428750235341
35225 105 18191328119894275664

> <PUBCHEM_SHAPE_MULTIPOLES>
597.53
8.65
4.24
3.13
1.24
1.6
-1.64
-2.51
0.95
-5
1.39
4.11
1.3
0.39

> <PUBCHEM_SHAPE_SELFOVERLAP>
1225.818

> <PUBCHEM_SHAPE_VOLUME>
345.3

> <PUBCHEM_COORDINATE_TYPE>
2
5
10

$$$$

