11655
  -OEChem-06261205572D

  5  4  0     0  0  0  0  0  0999 V2000
    3.7320    0.7500    0.0000 I   0  0  0  0  0  0  0  0  0  0  0  0
    2.0000    0.7500    0.0000 Cl  0  0  0  0  0  0  0  0  0  0  0  0
    2.8660   -0.7500    0.0000 Cl  0  0  0  0  0  0  0  0  0  0  0  0
    2.8660    0.2500    0.0000 C   0  0  0  0  0  0  0  0  0  0  0  0
    2.8660    0.8700    0.0000 H   0  0  0  0  0  0  0  0  0  0  0  0
  1  4  1  0  0  0  0
  2  4  1  0  0  0  0
  3  4  1  0  0  0  0
  4  5  1  0  0  0  0
M  END
> <PUBCHEM_COMPOUND_CID>
11655

> <PUBCHEM_COMPOUND_CANONICALIZED>
1

> <PUBCHEM_CACTVS_COMPLEXITY>
13.5

> <PUBCHEM_CACTVS_HBOND_ACCEPTOR>
0

> <PUBCHEM_CACTVS_HBOND_DONOR>
0

> <PUBCHEM_CACTVS_ROTATABLE_BOND>
0

> <PUBCHEM_CACTVS_SUBSKEYS>
AAADcQAAAAAGAgAAAAAAAAAAAAAAAAAAAAAAAAAAAAAAAAAAAAAAEAIgAAAAAAAAAMAAAAAAAAAAAAAAAAAAAAAAAAAAAAAAAAAAAAAAAAAAAAAAAAAAAAAAAAAAAAAAAAAAAAAAAAAAAAAAAAAAAAAAAA==

> <PUBCHEM_IUPAC_OPENEYE_NAME>
dichloro(iodo)methane

> <PUBCHEM_IUPAC_CAS_NAME>
dichloro(iodo)methane

> <PUBCHEM_IUPAC_NAME>
dichloro(iodo)methane

> <PUBCHEM_IUPAC_SYSTEMATIC_NAME>
bis(chloranyl)-iodanyl-methane

> <PUBCHEM_IUPAC_TRADITIONAL_NAME>
dichloro(iodo)methane

> <PUBCHEM_IUPAC_INCHI>
InChI=1S/CHCl2I/c2-1(3)4/h1H

> <PUBCHEM_IUPAC_INCHIKEY>
HNLZCOJXSLDGKD-UHFFFAOYSA-N

> <PUBCHEM_XLOGP3_AA>
2.3

> <PUBCHEM_EXACT_MASS>
209.850003

> <PUBCHEM_MOLECULAR_FORMULA>
CHCl2I

> <PUBCHEM_MOLECULAR_WEIGHT>
210.82911

> <PUBCHEM_OPENEYE_CAN_SMILES>
C(Cl)(Cl)I

> <PUBCHEM_OPENEYE_ISO_SMILES>
C(Cl)(Cl)I

> <PUBCHEM_CACTVS_TPSA>
0

> <PUBCHEM_MONOISOTOPIC_WEIGHT>
209.850003

> <PUBCHEM_TOTAL_CHARGE>
0

> <PUBCHEM_HEAVY_ATOM_COUNT>
4

> <PUBCHEM_ATOM_DEF_STEREO_COUNT>
0

> <PUBCHEM_ATOM_UDEF_STEREO_COUNT>
0

> <PUBCHEM_BOND_DEF_STEREO_COUNT>
0

> <PUBCHEM_BOND_UDEF_STEREO_COUNT>
0

> <PUBCHEM_ISOTOPIC_ATOM_COUNT>
0

> <PUBCHEM_COMPONENT_COUNT>
1

> <PUBCHEM_CACTVS_TAUTO_COUNT>
1

> <PUBCHEM_COORDINATE_TYPE>
1
5
255

$$$$

