13928
  -OEChem-06241222412D

 32 32  0     1  0  0  0  0  0999 V2000
    8.3312    3.3100    0.0000 Br  0  0  0  0  0  0  0  0  0  0  0  0
    3.9156    5.9300    0.0000 Cl  0  5  0  0  0  0  0  0  0  0  0  0
    3.1350    0.3100    0.0000 O   0  0  0  0  0  0  0  0  0  0  0  0
    4.8671    1.3100    0.0000 N   0  0  0  0  0  0  0  0  0  0  0  0
    6.5991    1.3100    0.0000 N   0  3  0  0  0  0  0  0  0  0  0  0
    3.1350    1.3100    0.0000 C   0  0  3  0  0  0  0  0  0  0  0  0
    4.0010    1.8100    0.0000 C   0  0  0  0  0  0  0  0  0  0  0  0
    2.2690    1.8100    0.0000 C   0  0  0  0  0  0  0  0  0  0  0  0
    5.7331    1.8100    0.0000 C   0  0  0  0  0  0  0  0  0  0  0  0
    2.2690    2.8100    0.0000 C   0  0  0  0  0  0  0  0  0  0  0  0
    1.4030    1.3100    0.0000 C   0  0  0  0  0  0  0  0  0  0  0  0
    5.7331    2.8100    0.0000 C   0  0  0  0  0  0  0  0  0  0  0  0
    1.4030    3.3100    0.0000 C   0  0  0  0  0  0  0  0  0  0  0  0
    0.5369    1.8100    0.0000 C   0  0  0  0  0  0  0  0  0  0  0  0
    0.5369    2.8100    0.0000 C   0  0  0  0  0  0  0  0  0  0  0  0
    7.4651    1.8100    0.0000 C   0  0  0  0  0  0  0  0  0  0  0  0
    6.5991    3.3100    0.0000 C   0  0  0  0  0  0  0  0  0  0  0  0
    7.4651    2.8100    0.0000 C   0  0  0  0  0  0  0  0  0  0  0  0
    3.6720    1.0000    0.0000 H   0  0  0  0  0  0  0  0  0  0  0  0
    4.3996    2.2849    0.0000 H   0  0  0  0  0  0  0  0  0  0  0  0
    3.6025    2.2849    0.0000 H   0  0  0  0  0  0  0  0  0  0  0  0
    4.8671    0.6900    0.0000 H   0  0  0  0  0  0  0  0  0  0  0  0
    2.8059    3.1200    0.0000 H   0  0  0  0  0  0  0  0  0  0  0  0
    1.4030    0.6900    0.0000 H   0  0  0  0  0  0  0  0  0  0  0  0
    6.5991    0.6900    0.0000 H   0  0  0  0  0  0  0  0  0  0  0  0
    5.1962    3.1200    0.0000 H   0  0  0  0  0  0  0  0  0  0  0  0
    2.5981    0.0000    0.0000 H   0  0  0  0  0  0  0  0  0  0  0  0
    1.4030    3.9300    0.0000 H   0  0  0  0  0  0  0  0  0  0  0  0
    0.0000    1.5000    0.0000 H   0  0  0  0  0  0  0  0  0  0  0  0
    0.0000    3.1200    0.0000 H   0  0  0  0  0  0  0  0  0  0  0  0
    8.0021    1.5000    0.0000 H   0  0  0  0  0  0  0  0  0  0  0  0
    6.5991    3.9300    0.0000 H   0  0  0  0  0  0  0  0  0  0  0  0
  1 18  1  0  0  0  0
  3  6  1  0  0  0  0
  3 27  1  0  0  0  0
  4  7  1  0  0  0  0
  4  9  1  0  0  0  0
  4 22  1  0  0  0  0
  5  9  2  0  0  0  0
  5 16  1  0  0  0  0
  5 25  1  0  0  0  0
  6  7  1  0  0  0  0
  6  8  1  0  0  0  0
  6 19  1  0  0  0  0
  7 20  1  0  0  0  0
  7 21  1  0  0  0  0
  8 10  2  0  0  0  0
  8 11  1  0  0  0  0
  9 12  1  0  0  0  0
 10 13  1  0  0  0  0
 10 23  1  0  0  0  0
 11 14  2  0  0  0  0
 11 24  1  0  0  0  0
 12 17  2  0  0  0  0
 12 26  1  0  0  0  0
 13 15  2  0  0  0  0
 13 28  1  0  0  0  0
 14 15  1  0  0  0  0
 14 29  1  0  0  0  0
 15 30  1  0  0  0  0
 16 18  2  0  0  0  0
 16 31  1  0  0  0  0
 17 18  1  0  0  0  0
 17 32  1  0  0  0  0
M  CHG  2   2  -1   5   1
M  END
> <PUBCHEM_COMPOUND_CID>
13928

> <PUBCHEM_COMPOUND_CANONICALIZED>
1

> <PUBCHEM_CACTVS_COMPLEXITY>
222

> <PUBCHEM_CACTVS_HBOND_ACCEPTOR>
3

> <PUBCHEM_CACTVS_HBOND_DONOR>
3

> <PUBCHEM_CACTVS_ROTATABLE_BOND>
4

> <PUBCHEM_CACTVS_SUBSKEYS>
AAADccBzIAAEEAAAAAAAAAAAAAAAAAAAAAA8QAAAAAAAAAABwAAAHgBQCAABrBThmgY9sJLJkgCgAjJnZACCgCmxAiQJ2aA4bLiKNuLAmZGEcAhs0APY2jeQwKAOAAAAAAAAAAAAAAAAAAAAAAAAAAAAAA==

> <PUBCHEM_IUPAC_OPENEYE_NAME>
2-[(5-bromopyridin-1-ium-2-yl)amino]-1-phenyl-ethanol chloride

> <PUBCHEM_IUPAC_CAS_NAME>
2-[(5-bromo-2-pyridin-1-iumyl)amino]-1-phenylethanol chloride

> <PUBCHEM_IUPAC_NAME>
2-[(5-bromopyridin-1-ium-2-yl)amino]-1-phenylethanol chloride

> <PUBCHEM_IUPAC_SYSTEMATIC_NAME>
2-[(5-bromanylpyridin-1-ium-2-yl)amino]-1-phenyl-ethanol chloride

> <PUBCHEM_IUPAC_TRADITIONAL_NAME>
2-[(5-bromopyridin-1-ium-2-yl)amino]-1-phenyl-ethanol chloride

> <PUBCHEM_IUPAC_INCHI>
InChI=1S/C13H13BrN2O.ClH/c14-11-6-7-13(15-8-11)16-9-12(17)10-4-2-1-3-5-10;/h1-8,12,17H,9H2,(H,15,16);1H

> <PUBCHEM_IUPAC_INCHIKEY>
AEYAFLLUOYZNOO-UHFFFAOYSA-N

> <PUBCHEM_EXACT_MASS>
327.997803

> <PUBCHEM_MOLECULAR_FORMULA>
C13H14BrClN2O

> <PUBCHEM_MOLECULAR_WEIGHT>
329.62006

> <PUBCHEM_OPENEYE_CAN_SMILES>
C1=CC=C(C=C1)C(CNC2=[NH+]C=C(C=C2)Br)O.[Cl-]

> <PUBCHEM_OPENEYE_ISO_SMILES>
C1=CC=C(C=C1)C(CNC2=[NH+]C=C(C=C2)Br)O.[Cl-]

> <PUBCHEM_CACTVS_TPSA>
46.4

> <PUBCHEM_MONOISOTOPIC_WEIGHT>
327.997803

> <PUBCHEM_TOTAL_CHARGE>
0

> <PUBCHEM_HEAVY_ATOM_COUNT>
18

> <PUBCHEM_ATOM_DEF_STEREO_COUNT>
0

> <PUBCHEM_ATOM_UDEF_STEREO_COUNT>
1

> <PUBCHEM_BOND_DEF_STEREO_COUNT>
0

> <PUBCHEM_BOND_UDEF_STEREO_COUNT>
0

> <PUBCHEM_ISOTOPIC_ATOM_COUNT>
0

> <PUBCHEM_COMPONENT_COUNT>
2

> <PUBCHEM_CACTVS_TAUTO_COUNT>
2

> <PUBCHEM_COORDINATE_TYPE>
1
5
255

> <PUBCHEM_BONDANNOTATIONS>
10  13  8
11  14  8
12  17  8
13  15  8
14  15  8
16  18  8
17  18  8
6  3  3
5  16  8
5  9  8
8  10  8
8  11  8
9  12  8

$$$$

