13795
  -OEChem-06241222403D

 50 52  0     1  0  0  0  0  0999 V2000
   -0.6187    2.9433    0.7061 S   0  0  0  0  0  0  0  0  0  0  0  0
   -0.8357   -1.3967    1.4241 O   0  0  0  0  0  0  0  0  0  0  0  0
   -4.6822    0.2427    0.2151 O   0  0  0  0  0  0  0  0  0  0  0  0
   -3.2967    0.0737   -1.6263 O   0  0  0  0  0  0  0  0  0  0  0  0
    3.2541    1.6230   -0.2167 O   0  0  0  0  0  0  0  0  0  0  0  0
   -5.4809   -1.7101   -0.9354 O   0  0  0  0  0  0  0  0  0  0  0  0
   -5.1311   -2.3725    1.2503 O   0  0  0  0  0  0  0  0  0  0  0  0
   -1.2061    0.4990    0.0679 N   0  0  0  0  0  0  0  0  0  0  0  0
    1.8439   -0.2148   -0.0771 N   0  0  0  0  0  0  0  0  0  0  0  0
   -0.0784    1.4123   -0.1385 C   0  0  2  0  0  0  0  0  0  0  0  0
   -2.4010    2.5833    0.3018 C   0  0  0  0  0  0  0  0  0  0  0  0
   -2.4993    1.0473    0.4227 C   0  0  1  0  0  0  0  0  0  0  0  0
    0.7779    0.4366    0.6805 C   0  0  1  0  0  0  0  0  0  0  0  0
   -0.5056   -0.4078    0.8096 C   0  0  0  0  0  0  0  0  0  0  0  0
   -2.6863    3.1311   -1.1032 C   0  0  0  0  0  0  0  0  0  0  0  0
   -3.2948    3.2818    1.3282 C   0  0  0  0  0  0  0  0  0  0  0  0
   -3.5121    0.3994   -0.4667 C   0  0  0  0  0  0  0  0  0  0  0  0
    3.0106    0.4454   -0.4675 C   0  0  0  0  0  0  0  0  0  0  0  0
    3.9475   -0.4605   -1.2425 C   0  0  0  0  0  0  0  0  0  0  0  0
   -5.7631   -0.3667   -0.5102 C   0  0  0  0  0  0  0  0  0  0  0  0
    5.2950   -0.6229   -0.5902 C   0  0  0  0  0  0  0  0  0  0  0  0
    6.3319    0.2560   -0.9034 C   0  0  0  0  0  0  0  0  0  0  0  0
    5.5064   -1.6519    0.3277 C   0  0  0  0  0  0  0  0  0  0  0  0
    7.5801    0.1058   -0.2993 C   0  0  0  0  0  0  0  0  0  0  0  0
    6.7545   -1.8020    0.9319 C   0  0  0  0  0  0  0  0  0  0  0  0
   -5.1817   -2.6036    0.0499 C   0  0  0  0  0  0  0  0  0  0  0  0
    7.7914   -0.9231    0.6184 C   0  0  0  0  0  0  0  0  0  0  0  0
   -4.9193   -3.9481   -0.5573 C   0  0  0  0  0  0  0  0  0  0  0  0
    0.1732    1.5265   -1.1976 H   0  0  0  0  0  0  0  0  0  0  0  0
   -2.6940    0.7409    1.4599 H   0  0  0  0  0  0  0  0  0  0  0  0
    1.1362    0.8029    1.6494 H   0  0  0  0  0  0  0  0  0  0  0  0
   -2.4966    4.2098   -1.1584 H   0  0  0  0  0  0  0  0  0  0  0  0
   -2.0757    2.6456   -1.8727 H   0  0  0  0  0  0  0  0  0  0  0  0
   -3.7374    2.9815   -1.3759 H   0  0  0  0  0  0  0  0  0  0  0  0
   -3.1745    4.3708    1.2944 H   0  0  0  0  0  0  0  0  0  0  0  0
   -4.3509    3.0635    1.1327 H   0  0  0  0  0  0  0  0  0  0  0  0
   -3.0777    2.9517    2.3507 H   0  0  0  0  0  0  0  0  0  0  0  0
    1.7430   -1.1950   -0.3294 H   0  0  0  0  0  0  0  0  0  0  0  0
    4.0649   -0.0271   -2.2441 H   0  0  0  0  0  0  0  0  0  0  0  0
    3.5028   -1.4494   -1.4075 H   0  0  0  0  0  0  0  0  0  0  0  0
   -6.6519   -0.3695    0.1301 H   0  0  0  0  0  0  0  0  0  0  0  0
   -5.9935    0.2368   -1.3950 H   0  0  0  0  0  0  0  0  0  0  0  0
    6.1793    1.0627   -1.6155 H   0  0  0  0  0  0  0  0  0  0  0  0
    4.7055   -2.3414    0.5812 H   0  0  0  0  0  0  0  0  0  0  0  0
    8.3873    0.7904   -0.5428 H   0  0  0  0  0  0  0  0  0  0  0  0
    6.9190   -2.6027    1.6469 H   0  0  0  0  0  0  0  0  0  0  0  0
    8.7631   -1.0398    1.0892 H   0  0  0  0  0  0  0  0  0  0  0  0
   -5.8128   -4.3007   -1.0785 H   0  0  0  0  0  0  0  0  0  0  0  0
   -4.6730   -4.6616    0.2344 H   0  0  0  0  0  0  0  0  0  0  0  0
   -4.0716   -3.8852   -1.2443 H   0  0  0  0  0  0  0  0  0  0  0  0
  1 10  1  0  0  0  0
  1 11  1  0  0  0  0
  2 14  2  0  0  0  0
  3 17  1  0  0  0  0
  3 20  1  0  0  0  0
  4 17  2  0  0  0  0
  5 18  2  0  0  0  0
  6 20  1  0  0  0  0
  6 26  1  0  0  0  0
  7 26  2  0  0  0  0
  8 10  1  0  0  0  0
  8 12  1  0  0  0  0
  8 14  1  0  0  0  0
  9 13  1  0  0  0  0
  9 18  1  0  0  0  0
  9 38  1  0  0  0  0
 10 13  1  0  0  0  0
 10 29  1  0  0  0  0
 11 12  1  0  0  0  0
 11 15  1  0  0  0  0
 11 16  1  0  0  0  0
 12 17  1  0  0  0  0
 12 30  1  0  0  0  0
 13 14  1  0  0  0  0
 13 31  1  0  0  0  0
 15 32  1  0  0  0  0
 15 33  1  0  0  0  0
 15 34  1  0  0  0  0
 16 35  1  0  0  0  0
 16 36  1  0  0  0  0
 16 37  1  0  0  0  0
 18 19  1  0  0  0  0
 19 21  1  0  0  0  0
 19 39  1  0  0  0  0
 19 40  1  0  0  0  0
 20 41  1  0  0  0  0
 20 42  1  0  0  0  0
 21 22  2  0  0  0  0
 21 23  1  0  0  0  0
 22 24  1  0  0  0  0
 22 43  1  0  0  0  0
 23 25  2  0  0  0  0
 23 44  1  0  0  0  0
 24 27  2  0  0  0  0
 24 45  1  0  0  0  0
 25 27  1  0  0  0  0
 25 46  1  0  0  0  0
 26 28  1  0  0  0  0
 27 47  1  0  0  0  0
 28 48  1  0  0  0  0
 28 49  1  0  0  0  0
 28 50  1  0  0  0  0
M  END
> <PUBCHEM_COMPOUND_CID>
13795

> <PUBCHEM_CONFORMER_RMSD>
1.2

> <PUBCHEM_CONFORMER_DIVERSEORDER>
1
168
221
190
169
143
141
29
245
124
51
191
132
64
235
53
241
149
230
85
139
103
172
123
134
226
2
49
194
18
59
56
239
78
258
151
240
41
225
27
138
254
242
96
202
177
150
52
110
259
214
84
154
263
160
106
66
161
222
250
193
93
200
76
184
147
90
224
186
176
165
118
113
249
63
243
208
217
236
58
71
231
79
229
22
203
69
173
130
199
26
32
195
54
253
261
10
262
215
238
164
207
60
75
233
39
148
171
80
122
91
74
25
180
43
265
116
247
70
248
31
167
198
65
125
86
112
117
72
105
126
210
246
170
145
179
73
81
197
107
192
14
82
61
257
46
21
251
166
158
37
87
142
100
36
127
255
266
212
234
57
216
48
219
97
183
120
146
40
4
15
45
213
189
109
157
94
152
174
128
23
102
83
228
237
62
187
19
162
205
111
129
159
24
119
260
227
135
256
244
68
121
206
20
92
99
88
101
211
252
5
35
163
218
136
47
6
67
114
232
264
16
11
33
185
108
55
42
38
30
204
44
182
12
3
115
155
9
13
104
175
131
17
98
144
181
156
137
223
196
50
153
140
201
8
188
220
28
95
77
89
133
34
209
178
7

> <PUBCHEM_MMFF94_PARTIAL_CHARGES>
32
1 -0.45
10 0.44
11 0.23
12 0.36
13 0.28
14 0.58
17 0.66
18 0.57
19 0.2
2 -0.57
20 0.56
21 -0.14
22 -0.15
23 -0.15
24 -0.15
25 -0.15
26 0.66
27 -0.15
28 0.06
3 -0.43
38 0.37
4 -0.57
43 0.15
44 0.15
45 0.15
46 0.15
47 0.15
5 -0.57
6 -0.43
7 -0.57
8 -0.59
9 -0.65

> <PUBCHEM_EFFECTIVE_ROTOR_COUNT>
9.8

> <PUBCHEM_PHARMACOPHORE_FEATURES>
9
1 2 acceptor
1 4 acceptor
1 5 acceptor
1 7 acceptor
1 9 donor
3 11 15 16 hydrophobe
4 8 10 13 14 rings
6 21 22 23 24 25 27 rings
7 1 8 10 11 12 13 14 rings

> <PUBCHEM_HEAVY_ATOM_COUNT>
28

> <PUBCHEM_ATOM_DEF_STEREO_COUNT>
0

> <PUBCHEM_ATOM_UDEF_STEREO_COUNT>
3

> <PUBCHEM_BOND_DEF_STEREO_COUNT>
0

> <PUBCHEM_BOND_UDEF_STEREO_COUNT>
0

> <PUBCHEM_ISOTOPIC_ATOM_COUNT>
0

> <PUBCHEM_COMPONENT_COUNT>
1

> <PUBCHEM_CACTVS_TAUTO_COUNT>
2

> <PUBCHEM_CONFORMER_ID>
000035E300000001

> <PUBCHEM_MMFF94_ENERGY>
67.3774

> <PUBCHEM_FEATURE_SELFOVERLAP>
49.402

> <PUBCHEM_SHAPE_FINGERPRINT>
10554248 39 16773788226258608142
10595046 47 18413666916541725188
11809386 21 18411141367558724681
12166972 35 17989203720655648292
1361 4 18408322220399982062
13631057 29 18410015437787642555
13690498 29 18201164244328531623
13782708 43 18113901550712178002
13914758 101 16773519983427198932
14251764 30 18335985251433940327
14347332 77 18412545396741797742
14784336 7 18272377503319092816
15183329 4 17132116857989721610
15461852 350 18411131447244600430
1577012 14 18201430437721782476
17686467 74 18337397050619261144
19427546 20 18340486763654743341
19958102 18 17489591130125718146
21130935 74 18263364845530495058
23081809 10 18059564841767216116
23402539 116 18341049735214752956
23522609 53 18123719128861100996
23559900 14 18270965643930928496
249057 25 18059564798548719644
2838139 119 14979961371486159263
34797466 226 17240762870774913724
3633792 109 17418100957043423198
4280585 95 18410857638293753095
4938544 92 15792003520186337835
5104073 3 18113898264914906888
56616090 284 18341892965800643515

> <PUBCHEM_SHAPE_MULTIPOLES>
534.9
19.44
3.7
1.18
30.46
0.3
0.01
13.55
0.98
-7.95
-0.45
-0.25
-0.05
-1.1

> <PUBCHEM_SHAPE_SELFOVERLAP>
1111.751

> <PUBCHEM_SHAPE_VOLUME>
306.1

> <PUBCHEM_COORDINATE_TYPE>
2
5
10

$$$$

