3623
  -OEChem-06251223332D

 41 43  0     1  0  0  0  0  0999 V2000
    6.3301   -1.4205    0.0000 O   0  0  0  0  0  0  0  0  0  0  0  0
    5.4641    0.0795    0.0000 O   0  0  0  0  0  0  0  0  0  0  0  0
    4.5981   -2.4205    0.0000 O   0  0  0  0  0  0  0  0  0  0  0  0
    9.1671    1.8645    0.0000 N   0  0  0  0  0  0  0  0  0  0  0  0
    9.9037    0.8818    0.0000 C   0  0  3  0  0  0  0  0  0  0  0  0
    9.6448   -0.0841    0.0000 C   0  0  3  0  0  0  0  0  0  0  0  0
   11.7356    0.1230    0.0000 C   0  0  0  0  0  0  0  0  0  0  0  0
   11.4768   -0.8429    0.0000 C   0  0  0  0  0  0  0  0  0  0  0  0
    7.3007    0.0740    0.0000 C   0  0  0  0  0  0  0  0  0  0  0  0
    8.1097   -1.3272    0.0000 C   0  0  0  0  0  0  0  0  0  0  0  0
    7.1962   -0.9205    0.0000 C   0  0  0  0  0  0  0  0  0  0  0  0
    8.6671    2.7305    0.0000 C   0  0  0  0  0  0  0  0  0  0  0  0
    5.4641   -0.9205    0.0000 C   0  0  0  0  0  0  0  0  0  0  0  0
    4.5981   -1.4205    0.0000 C   0  0  3  0  0  0  0  0  0  0  0  0
    3.7320   -0.9205    0.0000 C   0  0  0  0  0  0  0  0  0  0  0  0
    2.8660   -1.4205    0.0000 C   0  0  0  0  0  0  0  0  0  0  0  0
    3.7320    0.0795    0.0000 C   0  0  0  0  0  0  0  0  0  0  0  0
    2.0000   -0.9205    0.0000 C   0  0  0  0  0  0  0  0  0  0  0  0
    2.8660    0.5795    0.0000 C   0  0  0  0  0  0  0  0  0  0  0  0
    2.0000    0.0795    0.0000 C   0  0  0  0  0  0  0  0  0  0  0  0
    9.7338   -0.6977    0.0000 H   0  0  0  0  0  0  0  0  0  0  0  0
    9.8752    0.2625    0.0000 H   0  0  0  0  0  0  0  0  0  0  0  0
   11.2648   -1.4255    0.0000 H   0  0  0  0  0  0  0  0  0  0  0  0
   12.0681   -1.0293    0.0000 H   0  0  0  0  0  0  0  0  0  0  0  0
   12.3269   -0.0634    0.0000 H   0  0  0  0  0  0  0  0  0  0  0  0
   11.9477    0.7056    0.0000 H   0  0  0  0  0  0  0  0  0  0  0  0
    7.7720   -1.8472    0.0000 H   0  0  0  0  0  0  0  0  0  0  0  0
    8.5704   -1.7421    0.0000 H   0  0  0  0  0  0  0  0  0  0  0  0
    7.1984    0.6855    0.0000 H   0  0  0  0  0  0  0  0  0  0  0  0
    6.6810    0.0551    0.0000 H   0  0  0  0  0  0  0  0  0  0  0  0
    6.6762   -0.5828    0.0000 H   0  0  0  0  0  0  0  0  0  0  0  0
    9.2040    3.0405    0.0000 H   0  0  0  0  0  0  0  0  0  0  0  0
    8.3571    3.2674    0.0000 H   0  0  0  0  0  0  0  0  0  0  0  0
    8.1301    2.4205    0.0000 H   0  0  0  0  0  0  0  0  0  0  0  0
    5.1350   -1.7305    0.0000 H   0  0  0  0  0  0  0  0  0  0  0  0
    4.0611   -2.7305    0.0000 H   0  0  0  0  0  0  0  0  0  0  0  0
    2.8660   -2.0405    0.0000 H   0  0  0  0  0  0  0  0  0  0  0  0
    4.2690    0.3895    0.0000 H   0  0  0  0  0  0  0  0  0  0  0  0
    1.4631   -1.2305    0.0000 H   0  0  0  0  0  0  0  0  0  0  0  0
    2.8660    1.1995    0.0000 H   0  0  0  0  0  0  0  0  0  0  0  0
    1.4631    0.3895    0.0000 H   0  0  0  0  0  0  0  0  0  0  0  0
  1 11  1  0  0  0  0
  1 13  1  0  0  0  0
  2 13  2  0  0  0  0
  3 14  1  0  0  0  0
  3 36  1  0  0  0  0
  4  5  1  0  0  0  0
  4  6  1  0  0  0  0
  4 12  1  0  0  0  0
  5  7  1  0  0  0  0
  5  9  1  0  0  0  0
  5 22  1  0  0  0  0
  6  8  1  0  0  0  0
  6 10  1  0  0  0  0
  6 21  1  0  0  0  0
  7  8  1  0  0  0  0
  7 25  1  0  0  0  0
  7 26  1  0  0  0  0
  8 23  1  0  0  0  0
  8 24  1  0  0  0  0
  9 11  1  0  0  0  0
  9 29  1  0  0  0  0
  9 30  1  0  0  0  0
 10 11  1  0  0  0  0
 10 27  1  0  0  0  0
 10 28  1  0  0  0  0
 11 31  1  0  0  0  0
 12 32  1  0  0  0  0
 12 33  1  0  0  0  0
 12 34  1  0  0  0  0
 13 14  1  0  0  0  0
 14 15  1  0  0  0  0
 14 35  1  0  0  0  0
 15 16  2  0  0  0  0
 15 17  1  0  0  0  0
 16 18  1  0  0  0  0
 16 37  1  0  0  0  0
 17 19  2  0  0  0  0
 17 38  1  0  0  0  0
 18 20  2  0  0  0  0
 18 39  1  0  0  0  0
 19 20  1  0  0  0  0
 19 40  1  0  0  0  0
 20 41  1  0  0  0  0
M  END
> <PUBCHEM_COMPOUND_CID>
3623

> <PUBCHEM_COMPOUND_CANONICALIZED>
1

> <PUBCHEM_CACTVS_COMPLEXITY>
340

> <PUBCHEM_CACTVS_HBOND_ACCEPTOR>
4

> <PUBCHEM_CACTVS_HBOND_DONOR>
1

> <PUBCHEM_CACTVS_ROTATABLE_BOND>
4

> <PUBCHEM_CACTVS_SUBSKEYS>
AAADceB6MAAAAAAAAAAAAAAAAAAAAWAAAAA8QAAABgAAAAABAAAAHgAACAAADDzhmAYyCIMABgCIAiDSCAICAAAgAAAIiAFICIgJNjKAlRCGcAAmwAGLmAeYyKCOAAAAAAAAAAAAAAAAAAAAAAAAAAAAAA==

> <PUBCHEM_IUPAC_OPENEYE_NAME>
(8-methyl-8-azabicyclo[3.2.1]octan-3-yl) 2-hydroxy-2-phenyl-acetate

> <PUBCHEM_IUPAC_CAS_NAME>
2-hydroxy-2-phenylacetic acid (8-methyl-8-azabicyclo[3.2.1]octan-3-yl) ester

> <PUBCHEM_IUPAC_NAME>
(8-methyl-8-azabicyclo[3.2.1]octan-3-yl) 2-hydroxy-2-phenylacetate

> <PUBCHEM_IUPAC_SYSTEMATIC_NAME>
(8-methyl-8-azabicyclo[3.2.1]octan-3-yl) 2-oxidanyl-2-phenyl-ethanoate

> <PUBCHEM_IUPAC_TRADITIONAL_NAME>
2-hydroxy-2-phenyl-acetic acid (8-methyl-8-azabicyclo[3.2.1]octan-3-yl) ester

> <PUBCHEM_IUPAC_INCHI>
InChI=1S/C16H21NO3/c1-17-12-7-8-13(17)10-14(9-12)20-16(19)15(18)11-5-3-2-4-6-11/h2-6,12-15,18H,7-10H2,1H3

> <PUBCHEM_IUPAC_INCHIKEY>
ZTVIKZXZYLEVOL-UHFFFAOYSA-N

> <PUBCHEM_XLOGP3>
1.9

> <PUBCHEM_EXACT_MASS>
275.152144

> <PUBCHEM_MOLECULAR_FORMULA>
C16H21NO3

> <PUBCHEM_MOLECULAR_WEIGHT>
275.34284

> <PUBCHEM_OPENEYE_CAN_SMILES>
CN1C2CCC1CC(C2)OC(=O)C(C3=CC=CC=C3)O

> <PUBCHEM_OPENEYE_ISO_SMILES>
CN1C2CCC1CC(C2)OC(=O)C(C3=CC=CC=C3)O

> <PUBCHEM_CACTVS_TPSA>
49.8

> <PUBCHEM_MONOISOTOPIC_WEIGHT>
275.152144

> <PUBCHEM_TOTAL_CHARGE>
0

> <PUBCHEM_HEAVY_ATOM_COUNT>
20

> <PUBCHEM_ATOM_DEF_STEREO_COUNT>
0

> <PUBCHEM_ATOM_UDEF_STEREO_COUNT>
3

> <PUBCHEM_BOND_DEF_STEREO_COUNT>
0

> <PUBCHEM_BOND_UDEF_STEREO_COUNT>
0

> <PUBCHEM_ISOTOPIC_ATOM_COUNT>
0

> <PUBCHEM_COMPONENT_COUNT>
1

> <PUBCHEM_CACTVS_TAUTO_COUNT>
1

> <PUBCHEM_COORDINATE_TYPE>
1
5
255

> <PUBCHEM_BONDANNOTATIONS>
15  16  8
15  17  8
16  18  8
17  19  8
18  20  8
19  20  8
14  3  3
5  7  3
6  8  3

$$$$

