6582
  -OEChem-06261201243D

 12 11  0     0  0  0  0  0  0999 V2000
   -0.5447    1.3323   -0.0013 O   0  0  0  0  0  0  0  0  0  0  0  0
    0.6985   -0.6359    0.0058 N   0  0  0  0  0  0  0  0  0  0  0  0
   -0.4701    0.1063    0.0070 C   0  0  0  0  0  0  0  0  0  0  0  0
    2.0143   -0.0386   -0.0057 C   0  0  0  0  0  0  0  0  0  0  0  0
   -1.6980   -0.7641   -0.0059 C   0  0  0  0  0  0  0  0  0  0  0  0
    0.6423   -1.6500   -0.0141 H   0  0  0  0  0  0  0  0  0  0  0  0
    2.6279   -0.5471    0.7418 H   0  0  0  0  0  0  0  0  0  0  0  0
    1.9657    1.0301    0.2163 H   0  0  0  0  0  0  0  0  0  0  0  0
    2.4489   -0.1908   -0.9966 H   0  0  0  0  0  0  0  0  0  0  0  0
   -2.5800   -0.1596    0.2234 H   0  0  0  0  0  0  0  0  0  0  0  0
   -1.8162   -1.2127   -0.9959 H   0  0  0  0  0  0  0  0  0  0  0  0
   -1.6122   -1.5549    0.7449 H   0  0  0  0  0  0  0  0  0  0  0  0
  1  3  2  0  0  0  0
  2  3  1  0  0  0  0
  2  4  1  0  0  0  0
  2  6  1  0  0  0  0
  3  5  1  0  0  0  0
  4  7  1  0  0  0  0
  4  8  1  0  0  0  0
  4  9  1  0  0  0  0
  5 10  1  0  0  0  0
  5 11  1  0  0  0  0
  5 12  1  0  0  0  0
M  END
> <PUBCHEM_COMPOUND_CID>
6582

> <PUBCHEM_CONFORMER_RMSD>
0.4

> <PUBCHEM_CONFORMER_DIVERSEORDER>
1

> <PUBCHEM_MMFF94_PARTIAL_CHARGES>
6
1 -0.57
2 -0.73
3 0.57
4 0.3
5 0.06
6 0.37

> <PUBCHEM_EFFECTIVE_ROTOR_COUNT>
1

> <PUBCHEM_PHARMACOPHORE_FEATURES>
2
1 1 acceptor
1 2 donor

> <PUBCHEM_HEAVY_ATOM_COUNT>
5

> <PUBCHEM_ATOM_DEF_STEREO_COUNT>
0

> <PUBCHEM_ATOM_UDEF_STEREO_COUNT>
0

> <PUBCHEM_BOND_DEF_STEREO_COUNT>
0

> <PUBCHEM_BOND_UDEF_STEREO_COUNT>
0

> <PUBCHEM_ISOTOPIC_ATOM_COUNT>
0

> <PUBCHEM_COMPONENT_COUNT>
1

> <PUBCHEM_CACTVS_TAUTO_COUNT>
2

> <PUBCHEM_CONFORMER_ID>
000019B600000001

> <PUBCHEM_MMFF94_ENERGY>
2.2279

> <PUBCHEM_FEATURE_SELFOVERLAP>
10.148

> <PUBCHEM_SHAPE_FINGERPRINT>
139733 1 9295300438413733027
16714656 1 18334288743277540574
20096714 4 17979352285237942840
21015797 1 8862358943168218195
21040471 1 17906172102560087104
29004967 10 18340763728598833811
5460574 1 9295297135678853922
5943 1 6479419024818445725

> <PUBCHEM_SHAPE_MULTIPOLES>
92.05
2.31
1.06
0.58
0.67
0.31
0
-0.51
-0.01
-0.25
0
0
-0.02
0

> <PUBCHEM_SHAPE_SELFOVERLAP>
159.411

> <PUBCHEM_SHAPE_VOLUME>
62

> <PUBCHEM_COORDINATE_TYPE>
2
5
10

$$$$

