51090922
  -OEChem-06241223003D

 47 48  0     1  0  0  0  0  0999 V2000
    5.8384   -2.5205    1.3839 F   0  0  0  0  0  0  0  0  0  0  0  0
    4.1451   -2.8930    0.0628 F   0  0  0  0  0  0  0  0  0  0  0  0
    5.8335   -1.6904   -0.6316 F   0  0  0  0  0  0  0  0  0  0  0  0
   -3.1548    1.2289    0.5583 O   0  0  0  0  0  0  0  0  0  0  0  0
   -1.4116    2.2693   -1.2840 O   0  0  0  0  0  0  0  0  0  0  0  0
    3.5236   -0.1231   -0.0428 N   0  0  1  0  0  0  0  0  0  0  0  0
    0.1417    2.5885    0.4138 N   0  0  0  0  0  0  0  0  0  0  0  0
    1.9884    1.4679   -0.7187 C   0  0  1  0  0  0  0  0  0  0  0  0
    3.2209    1.6179   -1.6137 C   0  0  0  0  0  0  0  0  0  0  0  0
    2.5250    0.7797    0.5311 C   0  0  0  0  0  0  0  0  0  0  0  0
    4.2699    0.6883   -1.0068 C   0  0  0  0  0  0  0  0  0  0  0  0
    1.2897    2.7844   -0.4233 C   0  0  0  0  0  0  0  0  0  0  0  0
    4.3838   -0.7183    0.9687 C   0  0  0  0  0  0  0  0  0  0  0  0
    5.0522   -1.9648    0.4345 C   0  0  0  0  0  0  0  0  0  0  0  0
   -1.1330    2.3436   -0.0892 C   0  0  0  0  0  0  0  0  0  0  0  0
   -2.1724    2.1480    1.0058 C   0  0  1  0  0  0  0  0  0  0  0  0
   -2.8657    3.4582    1.3437 C   0  0  0  0  0  0  0  0  0  0  0  0
   -2.7094   -0.1166    0.6798 C   0  0  0  0  0  0  0  0  0  0  0  0
   -3.7900   -1.0362    0.1918 C   0  0  0  0  0  0  0  0  0  0  0  0
   -4.7523   -1.5155    1.0805 C   0  0  0  0  0  0  0  0  0  0  0  0
   -3.8319   -1.4121   -1.1507 C   0  0  0  0  0  0  0  0  0  0  0  0
   -5.7565   -2.3707    0.6268 C   0  0  0  0  0  0  0  0  0  0  0  0
   -4.8361   -2.2672   -1.6047 C   0  0  0  0  0  0  0  0  0  0  0  0
   -5.7985   -2.7465   -0.7159 C   0  0  0  0  0  0  0  0  0  0  0  0
    1.2819    0.7879   -1.2172 H   0  0  0  0  0  0  0  0  0  0  0  0
    2.9774    1.3245   -2.6412 H   0  0  0  0  0  0  0  0  0  0  0  0
    3.5936    2.6480   -1.6386 H   0  0  0  0  0  0  0  0  0  0  0  0
    2.9809    1.5013    1.2217 H   0  0  0  0  0  0  0  0  0  0  0  0
    1.7383    0.2306    1.0590 H   0  0  0  0  0  0  0  0  0  0  0  0
    4.7395    0.0780   -1.7839 H   0  0  0  0  0  0  0  0  0  0  0  0
    5.0481    1.2933   -0.5244 H   0  0  0  0  0  0  0  0  0  0  0  0
    0.9762    3.2630   -1.3579 H   0  0  0  0  0  0  0  0  0  0  0  0
    1.9585    3.4777    0.0987 H   0  0  0  0  0  0  0  0  0  0  0  0
    5.1301   -0.0106    1.3491 H   0  0  0  0  0  0  0  0  0  0  0  0
    3.7787   -1.0267    1.8308 H   0  0  0  0  0  0  0  0  0  0  0  0
    0.2777    2.6306    1.4196 H   0  0  0  0  0  0  0  0  0  0  0  0
   -1.6944    1.7701    1.9187 H   0  0  0  0  0  0  0  0  0  0  0  0
   -3.3786    3.8669    0.4656 H   0  0  0  0  0  0  0  0  0  0  0  0
   -2.1509    4.2072    1.6986 H   0  0  0  0  0  0  0  0  0  0  0  0
   -3.6279    3.3031    2.1145 H   0  0  0  0  0  0  0  0  0  0  0  0
   -1.7934   -0.2763    0.0978 H   0  0  0  0  0  0  0  0  0  0  0  0
   -2.4763   -0.3429    1.7280 H   0  0  0  0  0  0  0  0  0  0  0  0
   -4.7315   -1.2282    2.1285 H   0  0  0  0  0  0  0  0  0  0  0  0
   -3.0890   -1.0434   -1.8530 H   0  0  0  0  0  0  0  0  0  0  0  0
   -6.5062   -2.7435    1.3186 H   0  0  0  0  0  0  0  0  0  0  0  0
   -4.8692   -2.5594   -2.6502 H   0  0  0  0  0  0  0  0  0  0  0  0
   -6.5805   -3.4121   -1.0693 H   0  0  0  0  0  0  0  0  0  0  0  0
  1 14  1  0  0  0  0
  2 14  1  0  0  0  0
  3 14  1  0  0  0  0
  4 16  1  0  0  0  0
  4 18  1  0  0  0  0
  5 15  2  0  0  0  0
  6 10  1  0  0  0  0
  6 11  1  0  0  0  0
  6 13  1  0  0  0  0
  7 12  1  0  0  0  0
  7 15  1  0  0  0  0
  7 36  1  0  0  0  0
  8  9  1  0  0  0  0
  8 10  1  0  0  0  0
  8 12  1  0  0  0  0
  8 25  1  0  0  0  0
  9 11  1  0  0  0  0
  9 26  1  0  0  0  0
  9 27  1  0  0  0  0
 10 28  1  0  0  0  0
 10 29  1  0  0  0  0
 11 30  1  0  0  0  0
 11 31  1  0  0  0  0
 12 32  1  0  0  0  0
 12 33  1  0  0  0  0
 13 14  1  0  0  0  0
 13 34  1  0  0  0  0
 13 35  1  0  0  0  0
 15 16  1  0  0  0  0
 16 17  1  0  0  0  0
 16 37  1  0  0  0  0
 17 38  1  0  0  0  0
 17 39  1  0  0  0  0
 17 40  1  0  0  0  0
 18 19  1  0  0  0  0
 18 41  1  0  0  0  0
 18 42  1  0  0  0  0
 19 20  2  0  0  0  0
 19 21  1  0  0  0  0
 20 22  1  0  0  0  0
 20 43  1  0  0  0  0
 21 23  2  0  0  0  0
 21 44  1  0  0  0  0
 22 24  2  0  0  0  0
 22 45  1  0  0  0  0
 23 24  1  0  0  0  0
 23 46  1  0  0  0  0
 24 47  1  0  0  0  0
M  END
> <PUBCHEM_COMPOUND_CID>
51090922

> <PUBCHEM_CONFORMER_RMSD>
1.2

> <PUBCHEM_CONFORMER_DIVERSEORDER>
1
34
43
104
16
76
94
14
117
127
35
13
120
46
48
7
128
129
107
44
119
2
36
40
106
60
88
37
61
24
86
114
53
105
89
63
3
70
82
47
75
124
109
93
31
11
100
125
112
87
101
56
17
131
85
51
122
102
96
65
66
33
38
99
103
126
27
21
78
8
71
58
15
4
98
5
90
97
69
50
95
73
52
83
39
67
118
91
123
81
108
29
132
115
57
59
64
19
79
116
28
130
80
26
9
20
45
55
121
12
42
111
6
68
72
18
10
84
41
49
113
30
110
32
74
54
62
23
25
77
92
22

> <PUBCHEM_MMFF94_PARTIAL_CHARGES>
27
1 -0.34
10 0.27
11 0.27
12 0.3
13 0.27
14 1.02
15 0.57
16 0.34
18 0.42
19 -0.14
2 -0.34
20 -0.15
21 -0.15
22 -0.15
23 -0.15
24 -0.15
3 -0.34
36 0.37
4 -0.56
43 0.15
44 0.15
45 0.15
46 0.15
47 0.15
5 -0.57
6 -0.81
7 -0.73

> <PUBCHEM_EFFECTIVE_ROTOR_COUNT>
10

> <PUBCHEM_PHARMACOPHORE_FEATURES>
6
1 4 acceptor
1 5 acceptor
1 6 cation
1 7 donor
5 6 8 9 10 11 rings
6 19 20 21 22 23 24 rings

> <PUBCHEM_HEAVY_ATOM_COUNT>
24

> <PUBCHEM_ATOM_DEF_STEREO_COUNT>
0

> <PUBCHEM_ATOM_UDEF_STEREO_COUNT>
2

> <PUBCHEM_BOND_DEF_STEREO_COUNT>
0

> <PUBCHEM_BOND_UDEF_STEREO_COUNT>
0

> <PUBCHEM_ISOTOPIC_ATOM_COUNT>
0

> <PUBCHEM_COMPONENT_COUNT>
1

> <PUBCHEM_CACTVS_TAUTO_COUNT>
2

> <PUBCHEM_CONFORMER_ID>
030B95EA00000001

> <PUBCHEM_MMFF94_ENERGY>
45.7035

> <PUBCHEM_FEATURE_SELFOVERLAP>
30.451

> <PUBCHEM_SHAPE_FINGERPRINT>
10042902 136 18339071713975290406
10074138 170 17242154976327414713
10622 236 18413109463265357647
11069576 57 18270677550498805244
11135926 11 17771887356191503284
11796584 16 18117831325687377580
12107183 9 18188190041475219129
12166972 35 17917710163076502631
12174731 88 18268713990077663683
12422481 6 17458332053392260295
12633257 1 15864358986742624585
13004483 165 18041558019464233293
13533116 47 18340204068574497807
14251751 18 18187367635808120362
14347332 77 18410855469013593027
14429380 30 18343020012712219818
14480069 147 18131061624260198275
14848178 5 18340778073662930229
14866123 147 18337949095602953121
14950920 106 17167866365457958434
15250474 111 18339637953467439212
15728490 83 18199465656854637971
19319366 153 17906449927120948388
20621476 51 18337672017760233896
20775530 9 18341614840734874194
20843269 155 18335422339697329206
21585483 132 17391367204358342991
21703447 108 18189620436397606745
23622692 118 18411981364567731876
270888 7 9007061261795034026
314194 84 18267015064323719713
345986 75 17969212361753342377
351380 3 18189605047919142237
3680242 22 18263353703926432063
3729539 64 18200316507683448875
44062 13 18343025527513356077
46194498 28 16413789263995862117
463206 1 18120090577179786943
5104073 3 18040992947027036664
56633871 153 18194955477273280161
6034566 193 9511463346909315411
6058803 2 18268125669863785548
6431902 208 18412826884672423858
7970288 3 18337111138424609123
88748 71 18341610391454716745

> <PUBCHEM_SHAPE_MULTIPOLES>
450.39
15.28
4.42
1.41
1.68
1.1
-0.23
-18.31
0.27
-0.47
0.66
-0.25
0.01
-3.02

> <PUBCHEM_SHAPE_SELFOVERLAP>
926.499

> <PUBCHEM_SHAPE_VOLUME>
261.4

> <PUBCHEM_COORDINATE_TYPE>
2
5
10

$$$$

