3628
  -OEChem-06251223332D

 78 82  0     1  0  0  0  0  0999 V2000
    6.7227    0.0266    0.0000 O   0  0  0  0  0  0  0  0  0  0  0  0
    7.7518   -1.8819    0.0000 O   0  0  0  0  0  0  0  0  0  0  0  0
    5.7877    3.0617    0.0000 O   0  0  0  0  0  0  0  0  0  0  0  0
    6.8329    4.3724    0.0000 O   0  0  0  0  0  0  0  0  0  0  0  0
    6.4931   -1.6902    0.0000 O   0  0  0  0  0  0  0  0  0  0  0  0
    5.2537    0.3582    0.0000 O   0  0  0  0  0  0  0  0  0  0  0  0
    2.7580    0.5567    0.0000 O   0  0  0  0  0  0  0  0  0  0  0  0
    2.0822   -3.7578    0.0000 O   0  0  0  0  0  0  0  0  0  0  0  0
    4.3595    1.2163    0.0000 O   0  0  0  0  0  0  0  0  0  0  0  0
   10.2009    0.6144    0.0000 N   0  0  3  0  0  0  0  0  0  0  0  0
    9.2999    0.1805    0.0000 C   0  0  3  0  0  0  0  0  0  0  0  0
    8.3990    0.6144    0.0000 C   0  0  3  0  0  0  0  0  0  0  0  0
    9.9101   -0.6043    0.0000 C   0  0  0  0  0  0  0  0  0  0  0  0
    7.7138   -0.1059    0.0000 C   0  0  3  0  0  0  0  0  0  0  0  0
   11.1544    0.3331    0.0000 C   0  0  0  0  0  0  0  0  0  0  0  0
   11.0144   -0.4643    0.0000 C   0  0  0  0  0  0  0  0  0  0  0  0
    9.1639   -0.8042    0.0000 C   0  0  0  0  0  0  0  0  0  0  0  0
    8.1764    1.5893    0.0000 C   0  0  0  0  0  0  0  0  0  0  0  0
   10.4234    1.5893    0.0000 C   0  0  0  0  0  0  0  0  0  0  0  0
    8.1857   -0.9809    0.0000 C   0  0  0  0  0  0  0  0  0  0  0  0
    9.7999    2.3711    0.0000 C   0  0  0  0  0  0  0  0  0  0  0  0
    8.7999    2.3711    0.0000 C   0  0  0  0  0  0  0  0  0  0  0  0
    7.1442    1.7286    0.0000 C   0  0  0  0  0  0  0  0  0  0  0  0
    8.4344    3.3465    0.0000 C   0  0  0  0  0  0  0  0  0  0  0  0
    6.7562    2.6953    0.0000 C   0  0  0  0  0  0  0  0  0  0  0  0
    7.4056    3.5097    0.0000 C   0  0  0  0  0  0  0  0  0  0  0  0
    6.1123   -0.7655    0.0000 C   0  0  0  0  0  0  0  0  0  0  0  0
    5.1211   -0.6330    0.0000 C   0  0  3  0  0  0  0  0  0  0  0  0
    8.3151   -2.7081    0.0000 C   0  0  0  0  0  0  0  0  0  0  0  0
    4.9886   -1.6242    0.0000 C   0  0  0  0  0  0  0  0  0  0  0  0
    5.8350    4.0960    0.0000 C   0  0  0  0  0  0  0  0  0  0  0  0
    4.1300   -0.5005    0.0000 C   0  0  0  0  0  0  0  0  0  0  0  0
    4.0640   -2.0050    0.0000 C   0  0  0  0  0  0  0  0  0  0  0  0
    3.9314   -2.9962    0.0000 C   0  0  0  0  0  0  0  0  0  0  0  0
    3.0068   -3.3770    0.0000 C   0  0  0  0  0  0  0  0  0  0  0  0
    3.7491    0.4242    0.0000 C   0  0  0  0  0  0  0  0  0  0  0  0
    3.3876   -4.3017    0.0000 C   0  0  0  0  0  0  0  0  0  0  0  0
    2.6260   -2.4524    0.0000 C   0  0  0  0  0  0  0  0  0  0  0  0
    2.1476   -0.2355    0.0000 C   0  0  0  0  0  0  0  0  0  0  0  0
    8.8837    1.0009    0.0000 H   0  0  0  0  0  0  0  0  0  0  0  0
    9.3609   -0.8920    0.0000 H   0  0  0  0  0  0  0  0  0  0  0  0
   10.0958   -1.1958    0.0000 H   0  0  0  0  0  0  0  0  0  0  0  0
    7.5078    0.4788    0.0000 H   0  0  0  0  0  0  0  0  0  0  0  0
   11.7606    0.2030    0.0000 H   0  0  0  0  0  0  0  0  0  0  0  0
   11.3072    0.9340    0.0000 H   0  0  0  0  0  0  0  0  0  0  0  0
   11.0306   -1.0841    0.0000 H   0  0  0  0  0  0  0  0  0  0  0  0
   11.6327   -0.5101    0.0000 H   0  0  0  0  0  0  0  0  0  0  0  0
    9.6113   -1.2335    0.0000 H   0  0  0  0  0  0  0  0  0  0  0  0
   10.9820    1.3203    0.0000 H   0  0  0  0  0  0  0  0  0  0  0  0
   10.8100    2.0740    0.0000 H   0  0  0  0  0  0  0  0  0  0  0  0
   10.3585    2.6401    0.0000 H   0  0  0  0  0  0  0  0  0  0  0  0
    9.6620    2.9756    0.0000 H   0  0  0  0  0  0  0  0  0  0  0  0
    6.7632    1.2395    0.0000 H   0  0  0  0  0  0  0  0  0  0  0  0
    8.8265    3.8268    0.0000 H   0  0  0  0  0  0  0  0  0  0  0  0
    7.8028   -3.0574    0.0000 H   0  0  0  0  0  0  0  0  0  0  0  0
    8.6644   -3.2204    0.0000 H   0  0  0  0  0  0  0  0  0  0  0  0
    8.8274   -2.3588    0.0000 H   0  0  0  0  0  0  0  0  0  0  0  0
    5.1216   -2.2298    0.0000 H   0  0  0  0  0  0  0  0  0  0  0  0
    5.6081   -1.5984    0.0000 H   0  0  0  0  0  0  0  0  0  0  0  0
    5.7333    4.7076    0.0000 H   0  0  0  0  0  0  0  0  0  0  0  0
    5.2161    4.0592    0.0000 H   0  0  0  0  0  0  0  0  0  0  0  0
    3.5244   -0.6335    0.0000 H   0  0  0  0  0  0  0  0  0  0  0  0
    4.1558   -1.1200    0.0000 H   0  0  0  0  0  0  0  0  0  0  0  0
    3.9310   -1.3994    0.0000 H   0  0  0  0  0  0  0  0  0  0  0  0
    3.4445   -2.0308    0.0000 H   0  0  0  0  0  0  0  0  0  0  0  0
    4.7625    0.7366    0.0000 H   0  0  0  0  0  0  0  0  0  0  0  0
    4.0644   -3.6018    0.0000 H   0  0  0  0  0  0  0  0  0  0  0  0
    4.5509   -2.9704    0.0000 H   0  0  0  0  0  0  0  0  0  0  0  0
    2.8144   -4.5378    0.0000 H   0  0  0  0  0  0  0  0  0  0  0  0
    3.6238   -4.8750    0.0000 H   0  0  0  0  0  0  0  0  0  0  0  0
    3.9609   -4.0656    0.0000 H   0  0  0  0  0  0  0  0  0  0  0  0
    3.1993   -2.2163    0.0000 H   0  0  0  0  0  0  0  0  0  0  0  0
    2.3899   -1.8791    0.0000 H   0  0  0  0  0  0  0  0  0  0  0  0
    2.0527   -2.6885    0.0000 H   0  0  0  0  0  0  0  0  0  0  0  0
    2.0000   -4.3724    0.0000 H   0  0  0  0  0  0  0  0  0  0  0  0
    1.6565    0.1430    0.0000 H   0  0  0  0  0  0  0  0  0  0  0  0
    1.7692   -0.7266    0.0000 H   0  0  0  0  0  0  0  0  0  0  0  0
    2.6387   -0.6139    0.0000 H   0  0  0  0  0  0  0  0  0  0  0  0
  1 14  1  0  0  0  0
  1 27  1  0  0  0  0
  2 20  1  0  0  0  0
  2 29  1  0  0  0  0
  3 25  1  0  0  0  0
  3 31  1  0  0  0  0
  4 26  1  0  0  0  0
  4 31  1  0  0  0  0
  5 27  2  0  0  0  0
  6 28  1  0  0  0  0
  6 66  1  0  0  0  0
  7 36  1  0  0  0  0
  7 39  1  0  0  0  0
  8 35  1  0  0  0  0
  8 75  1  0  0  0  0
  9 36  2  0  0  0  0
 10 11  1  0  0  0  0
 10 15  1  0  0  0  0
 10 19  1  0  0  0  0
 11 12  1  0  0  0  0
 11 13  1  0  0  0  0
 11 17  1  0  0  0  0
 12 14  1  0  0  0  0
 12 18  1  0  0  0  0
 12 40  1  0  0  0  0
 13 16  1  0  0  0  0
 13 41  1  0  0  0  0
 13 42  1  0  0  0  0
 14 20  1  0  0  0  0
 14 43  1  0  0  0  0
 15 16  1  0  0  0  0
 15 44  1  0  0  0  0
 15 45  1  0  0  0  0
 16 46  1  0  0  0  0
 16 47  1  0  0  0  0
 17 20  2  0  0  0  0
 17 48  1  0  0  0  0
 18 22  1  0  0  0  0
 18 23  2  0  0  0  0
 19 21  1  0  0  0  0
 19 49  1  0  0  0  0
 19 50  1  0  0  0  0
 21 22  1  0  0  0  0
 21 51  1  0  0  0  0
 21 52  1  0  0  0  0
 22 24  2  0  0  0  0
 23 25  1  0  0  0  0
 23 53  1  0  0  0  0
 24 26  1  0  0  0  0
 24 54  1  0  0  0  0
 25 26  2  0  0  0  0
 27 28  1  0  0  0  0
 28 30  1  0  0  0  0
 28 32  1  0  0  0  0
 29 55  1  0  0  0  0
 29 56  1  0  0  0  0
 29 57  1  0  0  0  0
 30 33  1  0  0  0  0
 30 58  1  0  0  0  0
 30 59  1  0  0  0  0
 31 60  1  0  0  0  0
 31 61  1  0  0  0  0
 32 36  1  0  0  0  0
 32 62  1  0  0  0  0
 32 63  1  0  0  0  0
 33 34  1  0  0  0  0
 33 64  1  0  0  0  0
 33 65  1  0  0  0  0
 34 35  1  0  0  0  0
 34 67  1  0  0  0  0
 34 68  1  0  0  0  0
 35 37  1  0  0  0  0
 35 38  1  0  0  0  0
 37 69  1  0  0  0  0
 37 70  1  0  0  0  0
 37 71  1  0  0  0  0
 38 72  1  0  0  0  0
 38 73  1  0  0  0  0
 38 74  1  0  0  0  0
 39 76  1  0  0  0  0
 39 77  1  0  0  0  0
 39 78  1  0  0  0  0
M  END
> <PUBCHEM_COMPOUND_CID>
3628

> <PUBCHEM_COMPOUND_CANONICALIZED>
1

> <PUBCHEM_CACTVS_COMPLEXITY>
968

> <PUBCHEM_CACTVS_HBOND_ACCEPTOR>
10

> <PUBCHEM_CACTVS_HBOND_DONOR>
2

> <PUBCHEM_CACTVS_ROTATABLE_BOND>
11

> <PUBCHEM_CACTVS_SUBSKEYS>
AAADcfB6PAAAAAAAAAAAAAAAAAAAAWJEAAAwAAAABYAAAEixAAAAHgAACAAADdzhmAcyDoMABgCIAiDSCAKCCAAgIAAAiAFOiIgdJjaEsRumcCIn4BGPqAf7+P+OoAABAAAQQABAAAIAACCAAAAAAAAAAA==

> <PUBCHEM_IUPAC_INCHI>
InChI=1S/C29H39NO9/c1-27(2,33)8-5-10-29(34,16-23(31)36-4)26(32)39-25-22(35-3)15-28-9-6-11-30(28)12-7-18-13-20-21(38-17-37-20)14-19(18)24(25)28/h13-15,24-25,33-34H,5-12,16-17H2,1-4H3

> <PUBCHEM_IUPAC_INCHIKEY>
HYFHYPWGAURHIV-UHFFFAOYSA-N

> <PUBCHEM_XLOGP3>
0.8

> <PUBCHEM_EXACT_MASS>
545.262482

> <PUBCHEM_MOLECULAR_FORMULA>
C29H39NO9

> <PUBCHEM_MOLECULAR_WEIGHT>
545.62126

> <PUBCHEM_OPENEYE_CAN_SMILES>
CC(C)(CCCC(CC(=O)OC)(C(=O)OC1C2C3=CC4=C(C=C3CCN5C2(CCC5)C=C1OC)OCO4)O)O

> <PUBCHEM_OPENEYE_ISO_SMILES>
CC(C)(CCCC(CC(=O)OC)(C(=O)OC1C2C3=CC4=C(C=C3CCN5C2(CCC5)C=C1OC)OCO4)O)O

> <PUBCHEM_CACTVS_TPSA>
124

> <PUBCHEM_MONOISOTOPIC_WEIGHT>
545.262482

> <PUBCHEM_TOTAL_CHARGE>
0

> <PUBCHEM_HEAVY_ATOM_COUNT>
39

> <PUBCHEM_ATOM_DEF_STEREO_COUNT>
0

> <PUBCHEM_ATOM_UDEF_STEREO_COUNT>
4

> <PUBCHEM_BOND_DEF_STEREO_COUNT>
0

> <PUBCHEM_BOND_UDEF_STEREO_COUNT>
0

> <PUBCHEM_ISOTOPIC_ATOM_COUNT>
0

> <PUBCHEM_COMPONENT_COUNT>
1

> <PUBCHEM_CACTVS_TAUTO_COUNT>
1

> <PUBCHEM_COORDINATE_TYPE>
1
5
255

> <PUBCHEM_BONDANNOTATIONS>
14  1  3
11  13  3
12  18  3
18  22  8
18  23  8
22  24  8
23  25  8
24  26  8
25  26  8
28  6  3

$$$$

