13276
  -OEChem-06261208243D

 35 36  0     1  0  0  0  0  0999 V2000
    0.0366   -1.7702    0.1826 O   0  0  0  0  0  0  0  0  0  0  0  0
    0.0211    2.8565   -0.2831 O   0  0  0  0  0  0  0  0  0  0  0  0
   -3.9478    0.5802   -0.0936 O   0  0  0  0  0  0  0  0  0  0  0  0
    0.1091    0.5577    0.1165 N   0  0  0  0  0  0  0  0  0  0  0  0
   -1.9456    1.7029   -0.1302 N   0  0  0  0  0  0  0  0  0  0  0  0
    1.5656    0.5625   -0.0059 C   0  0  0  0  0  0  0  0  0  0  0  0
    2.1974   -0.0021    1.2712 C   0  0  0  0  0  0  0  0  0  0  0  0
    1.9877   -0.2478   -1.2364 C   0  0  0  0  0  0  0  0  0  0  0  0
    3.7181   -0.0843    1.1504 C   0  0  0  0  0  0  0  0  0  0  0  0
    3.5087   -0.3290   -1.3542 C   0  0  0  0  0  0  0  0  0  0  0  0
    4.1430   -0.8803   -0.0803 C   0  0  0  0  0  0  0  0  0  0  0  0
   -1.9832   -0.5735    0.7079 C   0  0  2  0  0  0  0  0  0  0  0  0
   -0.5278   -0.6809    0.2909 C   0  0  0  0  0  0  0  0  0  0  0  0
   -0.5552    1.7822   -0.0922 C   0  0  0  0  0  0  0  0  0  0  0  0
   -2.7273   -1.8859    0.4665 C   0  0  0  0  0  0  0  0  0  0  0  0
   -2.7344    0.5897    0.1045 C   0  0  0  0  0  0  0  0  0  0  0  0
   -2.8660   -2.1776   -1.0148 C   0  0  0  0  0  0  0  0  0  0  0  0
    1.9313    1.5882   -0.1348 H   0  0  0  0  0  0  0  0  0  0  0  0
    1.8271   -1.0020    1.5187 H   0  0  0  0  0  0  0  0  0  0  0  0
    1.9364    0.6367    2.1243 H   0  0  0  0  0  0  0  0  0  0  0  0
    1.5825    0.2243   -2.1404 H   0  0  0  0  0  0  0  0  0  0  0  0
    1.6171   -1.2742   -1.2463 H   0  0  0  0  0  0  0  0  0  0  0  0
    4.1341    0.9290    1.0908 H   0  0  0  0  0  0  0  0  0  0  0  0
    4.1357   -0.5470    2.0518 H   0  0  0  0  0  0  0  0  0  0  0  0
    3.7809   -0.9617   -2.2067 H   0  0  0  0  0  0  0  0  0  0  0  0
    3.9119    0.6705   -1.5589 H   0  0  0  0  0  0  0  0  0  0  0  0
    5.2346   -0.8607   -0.1735 H   0  0  0  0  0  0  0  0  0  0  0  0
    3.8514   -1.9302    0.0466 H   0  0  0  0  0  0  0  0  0  0  0  0
   -1.9660   -0.3911    1.7918 H   0  0  0  0  0  0  0  0  0  0  0  0
   -3.7270   -1.8419    0.9158 H   0  0  0  0  0  0  0  0  0  0  0  0
   -2.2051   -2.7188    0.9525 H   0  0  0  0  0  0  0  0  0  0  0  0
   -2.4337    2.5495   -0.4095 H   0  0  0  0  0  0  0  0  0  0  0  0
   -3.4709   -1.4326   -1.5387 H   0  0  0  0  0  0  0  0  0  0  0  0
   -1.8973   -2.2425   -1.5187 H   0  0  0  0  0  0  0  0  0  0  0  0
   -3.3648   -3.1437   -1.1506 H   0  0  0  0  0  0  0  0  0  0  0  0
  1 13  2  0  0  0  0
  2 14  2  0  0  0  0
  3 16  2  0  0  0  0
  4  6  1  0  0  0  0
  4 13  1  0  0  0  0
  4 14  1  0  0  0  0
  5 14  1  0  0  0  0
  5 16  1  0  0  0  0
  5 32  1  0  0  0  0
  6  7  1  0  0  0  0
  6  8  1  0  0  0  0
  6 18  1  0  0  0  0
  7  9  1  0  0  0  0
  7 19  1  0  0  0  0
  7 20  1  0  0  0  0
  8 10  1  0  0  0  0
  8 21  1  0  0  0  0
  8 22  1  0  0  0  0
  9 11  1  0  0  0  0
  9 23  1  0  0  0  0
  9 24  1  0  0  0  0
 10 11  1  0  0  0  0
 10 25  1  0  0  0  0
 10 26  1  0  0  0  0
 11 27  1  0  0  0  0
 11 28  1  0  0  0  0
 12 13  1  0  0  0  0
 12 15  1  0  0  0  0
 12 16  1  0  0  0  0
 12 29  1  0  0  0  0
 15 17  1  0  0  0  0
 15 30  1  0  0  0  0
 15 31  1  0  0  0  0
 17 33  1  0  0  0  0
 17 34  1  0  0  0  0
 17 35  1  0  0  0  0
M  END
> <PUBCHEM_COMPOUND_CID>
13276

> <PUBCHEM_CONFORMER_RMSD>
0.6

> <PUBCHEM_CONFORMER_DIVERSEORDER>
1
11
15
12
14
13
4
8
6
3
10
17
16
9
7
2
5

> <PUBCHEM_MMFF94_PARTIAL_CHARGES>
11
1 -0.57
12 0.12
13 0.57
14 0.69
16 0.57
2 -0.57
3 -0.57
32 0.37
4 -0.42
5 -0.49
6 0.3

> <PUBCHEM_EFFECTIVE_ROTOR_COUNT>
3.8

> <PUBCHEM_PHARMACOPHORE_FEATURES>
8
1 1 acceptor
1 12 anion
1 17 hydrophobe
1 2 acceptor
1 3 acceptor
1 5 donor
6 4 5 12 13 14 16 rings
6 6 7 8 9 10 11 rings

> <PUBCHEM_HEAVY_ATOM_COUNT>
17

> <PUBCHEM_ATOM_DEF_STEREO_COUNT>
0

> <PUBCHEM_ATOM_UDEF_STEREO_COUNT>
1

> <PUBCHEM_BOND_DEF_STEREO_COUNT>
0

> <PUBCHEM_BOND_UDEF_STEREO_COUNT>
0

> <PUBCHEM_ISOTOPIC_ATOM_COUNT>
0

> <PUBCHEM_COMPONENT_COUNT>
1

> <PUBCHEM_CACTVS_TAUTO_COUNT>
3

> <PUBCHEM_CONFORMER_ID>
000033DC00000001

> <PUBCHEM_MMFF94_ENERGY>
30.894

> <PUBCHEM_FEATURE_SELFOVERLAP>
40.594

> <PUBCHEM_SHAPE_FINGERPRINT>
10062212 137 18273218599027415451
10989021 7 18194117422085589883
11132069 177 18408606963144372824
12236239 1 17489584593453778224
12346177 29 18334583429784741279
12553582 1 18268701732114270139
13083527 12 17612618634167492827
13140716 1 18339356358453470177
13296908 3 18261392217646472666
13538477 17 17989202659703227914
14115302 16 17988920080614045053
14289901 80 16008752398436428298
14911166 2 18413392051303457349
15219456 202 17822013090700342954
15669948 3 18343300396397361202
15848700 24 18335708212746625991
16752209 62 18200601430890799649
16945 1 18411697725069759985
18175812 5 17894632547769599596
18186145 218 16056878014163494882
19049666 15 17752198655033516560
19141452 34 17967527940057296255
19862831 5 17632574950800791734
19868273 325 18413669093335659733
20279233 1 17894911849545774878
20281407 28 18261104184460422818
20361792 2 18340205172259812615
20510252 161 18263365961240959752
20645476 183 17417798552712288531
20645477 70 17834962971349758223
21501502 16 18266456495326935805
232386 152 18271806800168817292
2334 1 18124030131446976705
23402539 116 18412829075537975758
23419403 2 17396753780029771745
23532345 42 18262241010785042122
23557571 272 18261110747138679362
23559900 14 18335698395247926966
2748010 2 18196657294056756073
3286 77 17095242544654325424
474 4 16772089356091787508
5902787 121 18341613668261692512
69090 78 17822017527048339855
7364860 26 17974846164385992752
74978 22 18129379306686358443
77492 1 17489584584774198832
81228 2 18338222885976088968

> <PUBCHEM_SHAPE_MULTIPOLES>
322.28
6.72
2.16
1.12
2.36
0.62
-0.07
-2.2
-0.2
-1.77
-0.34
0.83
-0.24
0.02

> <PUBCHEM_SHAPE_SELFOVERLAP>
667.309

> <PUBCHEM_SHAPE_VOLUME>
179.8

> <PUBCHEM_COORDINATE_TYPE>
2
5
10

$$$$

