854324
  -OEChem-06241222473D

 38 42  0     1  0  0  0  0  0999 V2000
   -0.4447   -1.3321    0.3776 S   0  0  0  0  0  0  0  0  0  0  0  0
    1.6680    2.1269    1.3253 O   0  0  0  0  0  0  0  0  0  0  0  0
    1.8866    0.1534    0.0911 N   0  0  0  0  0  0  0  0  0  0  0  0
   -2.2417    0.6348   -0.0907 N   0  0  0  0  0  0  0  0  0  0  0  0
   -2.4008    1.9522   -0.3206 N   0  0  0  0  0  0  0  0  0  0  0  0
    2.1447   -2.0629    0.1709 N   0  0  0  0  0  0  0  0  0  0  0  0
    1.2782    1.4899    0.1114 C   0  0  1  0  0  0  0  0  0  0  0  0
   -0.1909    1.4186   -0.0264 C   0  0  0  0  0  0  0  0  0  0  0  0
   -0.9435    0.2821    0.0837 C   0  0  0  0  0  0  0  0  0  0  0  0
    3.2415   -0.0777   -0.0519 C   0  0  0  0  0  0  0  0  0  0  0  0
    1.2742   -1.0777    0.2098 C   0  0  0  0  0  0  0  0  0  0  0  0
   -1.1486    2.4245   -0.2802 C   0  0  0  0  0  0  0  0  0  0  0  0
    3.3686   -1.4636    0.0061 C   0  0  0  0  0  0  0  0  0  0  0  0
    4.3412    0.7727   -0.2162 C   0  0  0  0  0  0  0  0  0  0  0  0
   -3.3694   -0.1891   -0.0621 C   0  0  0  0  0  0  0  0  0  0  0  0
   -0.9098    3.8636   -0.4876 C   0  0  0  0  0  0  0  0  0  0  0  0
    4.6430   -2.0464   -0.1046 C   0  0  0  0  0  0  0  0  0  0  0  0
    5.6016    0.1762   -0.3254 C   0  0  0  0  0  0  0  0  0  0  0  0
    5.7520   -1.2096   -0.2706 C   0  0  0  0  0  0  0  0  0  0  0  0
   -4.0292   -0.4026    1.1401 C   0  0  0  0  0  0  0  0  0  0  0  0
   -3.8135   -0.7810   -1.2361 C   0  0  0  0  0  0  0  0  0  0  0  0
   -5.1559   -1.2246    1.1689 C   0  0  0  0  0  0  0  0  0  0  0  0
   -4.9402   -1.6029   -1.2076 C   0  0  0  0  0  0  0  0  0  0  0  0
   -5.6113   -1.8247   -0.0050 C   0  0  0  0  0  0  0  0  0  0  0  0
    1.6989    2.0454   -0.7355 H   0  0  0  0  0  0  0  0  0  0  0  0
    4.2324    1.8503   -0.2652 H   0  0  0  0  0  0  0  0  0  0  0  0
   -0.4994    4.3175    0.4202 H   0  0  0  0  0  0  0  0  0  0  0  0
   -0.1954    4.0213   -1.3021 H   0  0  0  0  0  0  0  0  0  0  0  0
   -1.8306    4.3982   -0.7437 H   0  0  0  0  0  0  0  0  0  0  0  0
    2.6082    2.3619    1.2573 H   0  0  0  0  0  0  0  0  0  0  0  0
    4.7695   -3.1236   -0.0633 H   0  0  0  0  0  0  0  0  0  0  0  0
    6.4790    0.8048   -0.4563 H   0  0  0  0  0  0  0  0  0  0  0  0
    6.7435   -1.6463   -0.3583 H   0  0  0  0  0  0  0  0  0  0  0  0
   -3.6843    0.0596    2.0615 H   0  0  0  0  0  0  0  0  0  0  0  0
   -3.2994   -0.6158   -2.1794 H   0  0  0  0  0  0  0  0  0  0  0  0
   -5.6784   -1.3973    2.1052 H   0  0  0  0  0  0  0  0  0  0  0  0
   -5.2950   -2.0703   -2.1215 H   0  0  0  0  0  0  0  0  0  0  0  0
   -6.4886   -2.4647    0.0173 H   0  0  0  0  0  0  0  0  0  0  0  0
  1  9  1  0  0  0  0
  1 11  1  0  0  0  0
  2  7  1  0  0  0  0
  2 30  1  0  0  0  0
  3  7  1  0  0  0  0
  3 10  1  0  0  0  0
  3 11  1  0  0  0  0
  4  5  1  0  0  0  0
  4  9  1  0  0  0  0
  4 15  1  0  0  0  0
  5 12  2  0  0  0  0
  6 11  2  0  0  0  0
  6 13  1  0  0  0  0
  7  8  1  0  0  0  0
  7 25  1  0  0  0  0
  8  9  2  0  0  0  0
  8 12  1  0  0  0  0
 10 13  1  0  0  0  0
 10 14  2  0  0  0  0
 12 16  1  0  0  0  0
 13 17  2  0  0  0  0
 14 18  1  0  0  0  0
 14 26  1  0  0  0  0
 15 20  2  0  0  0  0
 15 21  1  0  0  0  0
 16 27  1  0  0  0  0
 16 28  1  0  0  0  0
 16 29  1  0  0  0  0
 17 19  1  0  0  0  0
 17 31  1  0  0  0  0
 18 19  2  0  0  0  0
 18 32  1  0  0  0  0
 19 33  1  0  0  0  0
 20 22  1  0  0  0  0
 20 34  1  0  0  0  0
 21 23  2  0  0  0  0
 21 35  1  0  0  0  0
 22 24  2  0  0  0  0
 22 36  1  0  0  0  0
 23 24  1  0  0  0  0
 23 37  1  0  0  0  0
 24 38  1  0  0  0  0
M  END
> <PUBCHEM_COMPOUND_CID>
854324

> <PUBCHEM_CONFORMER_RMSD>
0.6

> <PUBCHEM_CONFORMER_DIVERSEORDER>
1
2

> <PUBCHEM_MMFF94_PARTIAL_CHARGES>
34
1 -0.11
10 -0.15
11 0.24
12 0.11
13 0.23
14 -0.15
15 -0.02
16 0.18
17 -0.15
18 -0.15
19 -0.15
2 -0.68
20 -0.15
21 -0.15
22 -0.15
23 -0.15
24 -0.15
26 0.15
3 0.05
30 0.4
31 0.15
32 0.15
33 0.15
34 0.15
35 0.15
36 0.15
37 0.15
38 0.15
4 0.59
5 -0.71
6 -0.57
7 0.72
8 -0.18
9 -0.1

> <PUBCHEM_EFFECTIVE_ROTOR_COUNT>
1.4

> <PUBCHEM_PHARMACOPHORE_FEATURES>
9
1 2 acceptor
1 2 donor
1 5 acceptor
3 3 6 11 cation
5 3 6 10 11 13 rings
5 4 5 8 9 12 rings
6 1 3 7 8 9 11 rings
6 10 13 14 17 18 19 rings
6 15 20 21 22 23 24 rings

> <PUBCHEM_HEAVY_ATOM_COUNT>
24

> <PUBCHEM_ATOM_DEF_STEREO_COUNT>
1

> <PUBCHEM_ATOM_UDEF_STEREO_COUNT>
0

> <PUBCHEM_BOND_DEF_STEREO_COUNT>
0

> <PUBCHEM_BOND_UDEF_STEREO_COUNT>
0

> <PUBCHEM_ISOTOPIC_ATOM_COUNT>
0

> <PUBCHEM_COMPONENT_COUNT>
1

> <PUBCHEM_CACTVS_TAUTO_COUNT>
1

> <PUBCHEM_CONFORMER_ID>
000D093400000001

> <PUBCHEM_MMFF94_ENERGY>
71.189

> <PUBCHEM_FEATURE_SELFOVERLAP>
45.932

> <PUBCHEM_SHAPE_FINGERPRINT>
11045515 52 18131072636509080309
11963148 33 18412268302859933442
12166972 35 17561078094960998718
12236239 1 17822569422304599755
12403259 226 18409736196479132712
12403260 363 18272653502286151948
12516196 113 18411700954969562531
12553582 1 18410304592176538283
12596602 18 16950562142824252243
12788726 201 18272376403068882683
13009979 54 17750233600475361847
13103583 49 17458613515552309459
13140716 1 18122345683774970362
13402501 40 18200867392730909611
13544653 18 18342172263323880581
13583140 156 14996286976196772331
13685833 64 18342734079817743355
13862211 1 18411421709017834898
14347332 77 18266177408557991086
14767858 380 18270951359370355756
14787075 74 18412542111397927354
14840074 17 18187363194864852919
15196674 1 18339642338687012236
15527383 91 18334007290329418137
15927050 60 17544187186549610948
16087824 20 18196373839987248597
17349148 13 17846211185459242378
17357779 13 18272097084540261645
17492 89 18194402419168403846
1813 80 18262784208257962965
18222031 100 18336839601991106787
19427546 20 18199747105918912036
19489759 90 15123793980889595359
200 152 18411419518320483939
20028762 73 17967818202120857455
21049683 271 18268702819052440340
21236236 1 18410007784187498209
21267235 1 18410003360798769454
21641784 216 18058713797812680716
221357 26 18408886252394316278
221490 88 18338516451833935056
22182313 1 18194991615160419445
22950370 63 18408881828446100095
23402539 116 18412263956204089647
23522609 53 18046593837873962816
23559900 14 18342464690710009897
283562 15 18342457096743483833
2871803 45 18272375277813882778
314194 84 18335138678556176858
329604 57 18343299271400863846
335352 9 18411139156674012445
34797466 226 16271916091239378879
350125 39 18409444803895440984
3737641 26 18115859862072497254
46194498 28 17345478072674641589
463206 1 18339922589419332223
465052 167 18188204316880926319
5104073 3 18264774431868032008
6669772 16 17836074573015320900
7495541 125 17967821548310875770
7970288 3 18410014295585590799
9709674 26 18268421503263559662

> <PUBCHEM_SHAPE_MULTIPOLES>
471.96
12.56
2.99
0.94
1.52
2.67
0.03
-8.87
-0.98
-0.56
-0.23
-0.98
-0.09
0.17

> <PUBCHEM_SHAPE_SELFOVERLAP>
1059.667

> <PUBCHEM_SHAPE_VOLUME>
252.4

> <PUBCHEM_COORDINATE_TYPE>
2
5
10

$$$$

