7847024
  -OEChem-06241222483D

 49 51  0     0  0  0  0  0  0999 V2000
    3.5731   -1.6079   -1.6375 S   0  0  0  0  0  0  0  0  0  0  0  0
    2.6529    1.7875    0.3107 O   0  0  0  0  0  0  0  0  0  0  0  0
   -3.6377   -0.9588    1.3664 O   0  0  0  0  0  0  0  0  0  0  0  0
    3.7596    2.0232    2.3211 O   0  0  0  0  0  0  0  0  0  0  0  0
    0.5843    3.0709   -1.2195 O   0  0  0  0  0  0  0  0  0  0  0  0
   -2.2150    0.6180    2.2543 O   0  0  0  0  0  0  0  0  0  0  0  0
    2.5493   -1.3666    0.7175 N   0  0  0  0  0  0  0  0  0  0  0  0
   -0.7247    1.7395    0.2110 N   0  0  0  0  0  0  0  0  0  0  0  0
    4.8641   -0.5236    0.5387 C   0  0  0  0  0  0  0  0  0  0  0  0
    4.8609    1.0103    0.4034 C   0  0  0  0  0  0  0  0  0  0  0  0
    3.6301   -1.1421    0.0073 C   0  0  0  0  0  0  0  0  0  0  0  0
    1.9584   -2.1692   -1.4123 C   0  0  0  0  0  0  0  0  0  0  0  0
    1.5814   -1.9554   -0.0830 C   0  0  0  0  0  0  0  0  0  0  0  0
    3.7223    1.6654    1.1519 C   0  0  0  0  0  0  0  0  0  0  0  0
    1.0880   -2.7563   -2.3447 C   0  0  0  0  0  0  0  0  0  0  0  0
    0.2868   -2.3440    0.3249 C   0  0  0  0  0  0  0  0  0  0  0  0
   -1.9282    1.5727   -0.5142 C   0  0  0  0  0  0  0  0  0  0  0  0
   -2.9826    0.8220    0.0062 C   0  0  0  0  0  0  0  0  0  0  0  0
    1.4871    2.3924    0.8795 C   0  0  0  0  0  0  0  0  0  0  0  0
   -0.1873   -3.1315   -1.9151 C   0  0  0  0  0  0  0  0  0  0  0  0
   -0.5848   -2.9291   -0.5982 C   0  0  0  0  0  0  0  0  0  0  0  0
    0.4036    2.4518   -0.1753 C   0  0  0  0  0  0  0  0  0  0  0  0
   -2.0506    2.1711   -1.7683 C   0  0  0  0  0  0  0  0  0  0  0  0
   -4.1591    0.6701   -0.7275 C   0  0  0  0  0  0  0  0  0  0  0  0
   -3.2272    2.0193   -2.5019 C   0  0  0  0  0  0  0  0  0  0  0  0
   -4.2814    1.2688   -1.9814 C   0  0  0  0  0  0  0  0  0  0  0  0
   -2.8877    0.1829    1.3128 C   0  0  0  0  0  0  0  0  0  0  0  0
   -3.6272   -1.6789    2.6037 C   0  0  0  0  0  0  0  0  0  0  0  0
   -4.5082   -2.9027    2.4695 C   0  0  0  0  0  0  0  0  0  0  0  0
    5.7556   -0.9266    0.0433 H   0  0  0  0  0  0  0  0  0  0  0  0
    4.9576   -0.7858    1.6003 H   0  0  0  0  0  0  0  0  0  0  0  0
    4.8226    1.3160   -0.6495 H   0  0  0  0  0  0  0  0  0  0  0  0
    5.7964    1.4194    0.8030 H   0  0  0  0  0  0  0  0  0  0  0  0
    1.3914   -2.9171   -3.3747 H   0  0  0  0  0  0  0  0  0  0  0  0
   -0.0356   -2.1877    1.3506 H   0  0  0  0  0  0  0  0  0  0  0  0
    1.7140    3.4201    1.1857 H   0  0  0  0  0  0  0  0  0  0  0  0
    1.1710    1.8188    1.7572 H   0  0  0  0  0  0  0  0  0  0  0  0
   -0.8770   -3.5866   -2.6211 H   0  0  0  0  0  0  0  0  0  0  0  0
   -1.5815   -3.2247   -0.2822 H   0  0  0  0  0  0  0  0  0  0  0  0
   -0.6949    1.2759    1.1147 H   0  0  0  0  0  0  0  0  0  0  0  0
   -1.2851    2.7672   -2.2431 H   0  0  0  0  0  0  0  0  0  0  0  0
   -5.0053    0.1045   -0.3460 H   0  0  0  0  0  0  0  0  0  0  0  0
   -3.3243    2.4855   -3.4781 H   0  0  0  0  0  0  0  0  0  0  0  0
   -5.1987    1.1534   -2.5515 H   0  0  0  0  0  0  0  0  0  0  0  0
   -4.0066   -1.0335    3.4034 H   0  0  0  0  0  0  0  0  0  0  0  0
   -2.6012   -1.9837    2.8378 H   0  0  0  0  0  0  0  0  0  0  0  0
   -4.5234   -3.4777    3.3995 H   0  0  0  0  0  0  0  0  0  0  0  0
   -4.1499   -3.5477    1.6603 H   0  0  0  0  0  0  0  0  0  0  0  0
   -5.5333   -2.6134    2.2151 H   0  0  0  0  0  0  0  0  0  0  0  0
  1 11  1  0  0  0  0
  1 12  1  0  0  0  0
  2 14  1  0  0  0  0
  2 19  1  0  0  0  0
  3 27  1  0  0  0  0
  3 28  1  0  0  0  0
  4 14  2  0  0  0  0
  5 22  2  0  0  0  0
  6 27  2  0  0  0  0
  7 11  2  0  0  0  0
  7 13  1  0  0  0  0
  8 17  1  0  0  0  0
  8 22  1  0  0  0  0
  8 40  1  0  0  0  0
  9 10  1  0  0  0  0
  9 11  1  0  0  0  0
  9 30  1  0  0  0  0
  9 31  1  0  0  0  0
 10 14  1  0  0  0  0
 10 32  1  0  0  0  0
 10 33  1  0  0  0  0
 12 13  1  0  0  0  0
 12 15  2  0  0  0  0
 13 16  2  0  0  0  0
 15 20  1  0  0  0  0
 15 34  1  0  0  0  0
 16 21  1  0  0  0  0
 16 35  1  0  0  0  0
 17 18  1  0  0  0  0
 17 23  2  0  0  0  0
 18 24  2  0  0  0  0
 18 27  1  0  0  0  0
 19 22  1  0  0  0  0
 19 36  1  0  0  0  0
 19 37  1  0  0  0  0
 20 21  2  0  0  0  0
 20 38  1  0  0  0  0
 21 39  1  0  0  0  0
 23 25  1  0  0  0  0
 23 41  1  0  0  0  0
 24 26  1  0  0  0  0
 24 42  1  0  0  0  0
 25 26  2  0  0  0  0
 25 43  1  0  0  0  0
 26 44  1  0  0  0  0
 28 29  1  0  0  0  0
 28 45  1  0  0  0  0
 28 46  1  0  0  0  0
 29 47  1  0  0  0  0
 29 48  1  0  0  0  0
 29 49  1  0  0  0  0
M  END
> <PUBCHEM_COMPOUND_CID>
7847024

> <PUBCHEM_CONFORMER_RMSD>
1.2

> <PUBCHEM_CONFORMER_DIVERSEORDER>
1
4
17
81
101
47
95
32
28
94
10
106
38
44
26
36
67
90
52
65
87
72
73
86
11
78
24
96
103
55
75
21
80
7
16
49
82
50
53
13
102
41
51
18
91
107
20
99
85
45
58
61
39
88
22
77
89
76
83
15
104
62
69
84
60
74
8
71
63
25
105
92
2
5
48
40
59
29
56
6
31
23
98
14
100
64
42
19
79
27
93
30
70
3
12
66
33
37
43
9
35
57
54
46
68
97
34

> <PUBCHEM_MMFF94_PARTIAL_CHARGES>
37
1 -0.08
10 0.06
11 0.2
12 0.04
13 0.23
14 0.66
15 -0.15
16 -0.15
17 0.12
18 0.09
19 0.34
2 -0.43
20 -0.15
21 -0.15
22 0.57
23 -0.15
24 -0.15
25 -0.15
26 -0.15
27 0.63
28 0.28
3 -0.43
34 0.15
35 0.15
38 0.15
39 0.15
4 -0.57
40 0.37
41 0.15
42 0.15
43 0.15
44 0.15
5 -0.57
6 -0.57
7 -0.57
8 -0.55
9 0.18

> <PUBCHEM_EFFECTIVE_ROTOR_COUNT>
11

> <PUBCHEM_PHARMACOPHORE_FEATURES>
8
1 4 acceptor
1 5 acceptor
1 6 acceptor
1 7 acceptor
1 8 donor
5 1 7 11 12 13 rings
6 12 13 15 16 20 21 rings
6 17 18 23 24 25 26 rings

> <PUBCHEM_HEAVY_ATOM_COUNT>
29

> <PUBCHEM_ATOM_DEF_STEREO_COUNT>
0

> <PUBCHEM_ATOM_UDEF_STEREO_COUNT>
0

> <PUBCHEM_BOND_DEF_STEREO_COUNT>
0

> <PUBCHEM_BOND_UDEF_STEREO_COUNT>
0

> <PUBCHEM_ISOTOPIC_ATOM_COUNT>
0

> <PUBCHEM_COMPONENT_COUNT>
1

> <PUBCHEM_CACTVS_TAUTO_COUNT>
6

> <PUBCHEM_CONFORMER_ID>
0077BC7000000001

> <PUBCHEM_MMFF94_ENERGY>
63.8413

> <PUBCHEM_FEATURE_SELFOVERLAP>
40.666

> <PUBCHEM_SHAPE_FINGERPRINT>
10675989 125 17118060949800165964
12422481 6 18194107526608008827
12596599 1 16951131831723415492
12596602 18 16009615502274620304
13402501 40 18341336681583815493
13583140 156 18343022241520938058
1361 2 18262536869839303829
13617811 41 16987722475691826165
14659021 117 15523216159856625990
15635459 17 18265619964277402420
15721738 202 17677636184719274615
16067689 68 14274582993566171390
17138139 8 16811282538268112349
21315764 371 16806759254742020682
21585482 310 17199087935170864771
22182313 1 18411698781262267738
23559900 14 17773601709735680714
238 59 18117857704885626454
35225 105 17684084682460223437
463206 1 18117019739787086653
469060 322 17909562665823854147
508706 21 18131358496694391623
6287921 2 17751052839036898439

> <PUBCHEM_SHAPE_MULTIPOLES>
561.35
9.34
4.33
2.66
1.12
1.06
-0.24
-0.64
-2.78
-0.12
0.79
-2.54
0.8
4.89

> <PUBCHEM_SHAPE_SELFOVERLAP>
1184.772

> <PUBCHEM_SHAPE_VOLUME>
314.9

> <PUBCHEM_COORDINATE_TYPE>
2
5
10

$$$$

