6870
  -OEChem-06261201332D

 22 23  0     0  0  0  0  0  0999 V2000
    5.4851   -0.0424    0.0000 S   0  0  0  0  0  0  0  0  0  0  0  0
    6.0687   -0.8471    0.0000 S   0  0  0  0  0  0  0  0  0  0  0  0
    2.0000   -0.8471    0.0000 O   0  0  0  0  0  0  0  0  0  0  0  0
    4.9260    1.4482    0.0000 O   0  0  0  0  0  0  0  0  0  0  0  0
    3.5878   -1.6561    0.0000 N   0  0  0  0  0  0  0  0  0  0  0  0
    3.2788    0.9130    0.0000 N   0  0  0  0  0  0  0  0  0  0  0  0
    4.5388   -1.3471    0.0000 C   0  0  0  0  0  0  0  0  0  0  0  0
    4.5388   -0.3471    0.0000 C   0  0  0  0  0  0  0  0  0  0  0  0
    3.5878   -0.0381    0.0000 C   0  0  0  0  0  0  0  0  0  0  0  0
    3.0000   -0.8471    0.0000 C   0  0  0  0  0  0  0  0  0  0  0  0
    3.2788   -2.6072    0.0000 C   0  0  0  0  0  0  0  0  0  0  0  0
    5.4851   -1.6518    0.0000 C   0  0  0  0  0  0  0  0  0  0  0  0
    3.9479    1.6561    0.0000 C   0  0  0  0  0  0  0  0  0  0  0  0
    3.6389    2.6072    0.0000 C   0  0  0  0  0  0  0  0  0  0  0  0
    2.6891   -2.4156    0.0000 H   0  0  0  0  0  0  0  0  0  0  0  0
    3.0872   -3.1968    0.0000 H   0  0  0  0  0  0  0  0  0  0  0  0
    3.8684   -2.7988    0.0000 H   0  0  0  0  0  0  0  0  0  0  0  0
    5.6777   -2.2412    0.0000 H   0  0  0  0  0  0  0  0  0  0  0  0
    2.6723    1.0419    0.0000 H   0  0  0  0  0  0  0  0  0  0  0  0
    4.2285    2.7988    0.0000 H   0  0  0  0  0  0  0  0  0  0  0  0
    3.4473    3.1968    0.0000 H   0  0  0  0  0  0  0  0  0  0  0  0
    3.0492    2.4156    0.0000 H   0  0  0  0  0  0  0  0  0  0  0  0
  1  2  1  0  0  0  0
  1  8  1  0  0  0  0
  2 12  1  0  0  0  0
  3 10  2  0  0  0  0
  4 13  2  0  0  0  0
  5  7  1  0  0  0  0
  5 10  1  0  0  0  0
  5 11  1  0  0  0  0
  6  9  1  0  0  0  0
  6 13  1  0  0  0  0
  6 19  1  0  0  0  0
  7  8  1  0  0  0  0
  7 12  2  0  0  0  0
  8  9  2  0  0  0  0
  9 10  1  0  0  0  0
 11 15  1  0  0  0  0
 11 16  1  0  0  0  0
 11 17  1  0  0  0  0
 12 18  1  0  0  0  0
 13 14  1  0  0  0  0
 14 20  1  0  0  0  0
 14 21  1  0  0  0  0
 14 22  1  0  0  0  0
M  END
> <PUBCHEM_COMPOUND_CID>
6870

> <PUBCHEM_COMPOUND_CANONICALIZED>
1

> <PUBCHEM_CACTVS_COMPLEXITY>
387

> <PUBCHEM_CACTVS_HBOND_ACCEPTOR>
4

> <PUBCHEM_CACTVS_HBOND_DONOR>
1

> <PUBCHEM_CACTVS_ROTATABLE_BOND>
1

> <PUBCHEM_CACTVS_SUBSKEYS>
AAADccBzMABgAAAAAAAAAAAAAAAAAQIAAAAAAAAAAAAQAAAAAAAAHgQQAAAACAiFwASCAAPAAACIAAVSUACAAAAAAgAACACIAEAIQAAAACAQAAAAFgCAgQAAAAAAAAAAAAAAAAAAAAAAAAAAAAAAAAAAAA==

> <PUBCHEM_IUPAC_OPENEYE_NAME>
N-(4-methyl-5-oxo-dithiolo[4,3-b]pyrrol-6-yl)acetamide

> <PUBCHEM_IUPAC_CAS_NAME>
N-(4-methyl-5-oxo-6-dithiolo[4,3-b]pyrrolyl)acetamide

> <PUBCHEM_IUPAC_NAME>
N-(4-methyl-5-oxodithiolo[4,3-b]pyrrol-6-yl)acetamide

> <PUBCHEM_IUPAC_SYSTEMATIC_NAME>
N-(4-methyl-5-oxidanylidene-[1,2]dithiolo[4,3-b]pyrrol-6-yl)ethanamide

> <PUBCHEM_IUPAC_TRADITIONAL_NAME>
N-(5-keto-4-methyl-dithiolo[4,3-b]pyrrol-6-yl)acetamide

> <PUBCHEM_IUPAC_INCHI>
InChI=1S/C8H8N2O2S2/c1-4(11)9-6-7-5(3-13-14-7)10(2)8(6)12/h3H,1-2H3,(H,9,11)

> <PUBCHEM_IUPAC_INCHIKEY>
MHMRAFONCSQAIA-UHFFFAOYSA-N

> <PUBCHEM_XLOGP3_AA>
-0.6

> <PUBCHEM_EXACT_MASS>
228.00272

> <PUBCHEM_MOLECULAR_FORMULA>
C8H8N2O2S2

> <PUBCHEM_MOLECULAR_WEIGHT>
228.29132

> <PUBCHEM_OPENEYE_CAN_SMILES>
CC(=O)NC1=C2C(=CSS2)N(C1=O)C

> <PUBCHEM_OPENEYE_ISO_SMILES>
CC(=O)NC1=C2C(=CSS2)N(C1=O)C

> <PUBCHEM_CACTVS_TPSA>
100

> <PUBCHEM_MONOISOTOPIC_WEIGHT>
228.00272

> <PUBCHEM_TOTAL_CHARGE>
0

> <PUBCHEM_HEAVY_ATOM_COUNT>
14

> <PUBCHEM_ATOM_DEF_STEREO_COUNT>
0

> <PUBCHEM_ATOM_UDEF_STEREO_COUNT>
0

> <PUBCHEM_BOND_DEF_STEREO_COUNT>
0

> <PUBCHEM_BOND_UDEF_STEREO_COUNT>
0

> <PUBCHEM_ISOTOPIC_ATOM_COUNT>
0

> <PUBCHEM_COMPONENT_COUNT>
1

> <PUBCHEM_CACTVS_TAUTO_COUNT>
2

> <PUBCHEM_COORDINATE_TYPE>
1
5
255

> <PUBCHEM_BONDANNOTATIONS>
1  2  8
1  8  8
2  12  8
5  10  8
5  7  8
7  12  8
8  9  8
9  10  8

$$$$

