7847052
  -OEChem-06241222482D

 49 51  0     1  0  0  0  0  0999 V2000
    2.0000   -2.5000    0.0000 Cl  0  0  0  0  0  0  0  0  0  0  0  0
    6.3301    0.0000    0.0000 O   0  0  0  0  0  0  0  0  0  0  0  0
    8.0622    0.0000    0.0000 O   0  0  0  0  0  0  0  0  0  0  0  0
    4.5981   -1.0000    0.0000 O   0  0  0  0  0  0  0  0  0  0  0  0
    7.1962    3.5000    0.0000 N   0  0  0  0  0  0  0  0  0  0  0  0
    5.4641   -2.5000    0.0000 N   0  0  0  0  0  0  0  0  0  0  0  0
    7.1962    1.5000    0.0000 C   0  0  0  0  0  0  0  0  0  0  0  0
    6.3301    2.0000    0.0000 C   0  0  0  0  0  0  0  0  0  0  0  0
    8.0622    2.0000    0.0000 C   0  0  0  0  0  0  0  0  0  0  0  0
    6.3301    3.0000    0.0000 C   0  0  0  0  0  0  0  0  0  0  0  0
    8.0622    3.0000    0.0000 C   0  0  0  0  0  0  0  0  0  0  0  0
    5.4641    3.5000    0.0000 C   0  0  0  0  0  0  0  0  0  0  0  0
    5.4641    1.5000    0.0000 C   0  0  0  0  0  0  0  0  0  0  0  0
    7.1962    0.5000    0.0000 C   0  0  0  0  0  0  0  0  0  0  0  0
    8.9561    1.4653    0.0000 C   0  0  0  0  0  0  0  0  0  0  0  0
    6.3301   -1.0000    0.0000 C   0  0  1  0  0  0  0  0  0  0  0  0
    8.9561    3.5347    0.0000 C   0  0  0  0  0  0  0  0  0  0  0  0
    5.4641    4.5000    0.0000 C   0  0  0  0  0  0  0  0  0  0  0  0
    9.8622    1.9792    0.0000 C   0  0  0  0  0  0  0  0  0  0  0  0
    9.8622    3.0208    0.0000 C   0  0  0  0  0  0  0  0  0  0  0  0
    5.4641   -1.5000    0.0000 C   0  0  0  0  0  0  0  0  0  0  0  0
    7.1962   -1.5000    0.0000 C   0  0  0  0  0  0  0  0  0  0  0  0
    4.5981   -3.0000    0.0000 C   0  0  0  0  0  0  0  0  0  0  0  0
    3.7320   -2.5000    0.0000 C   0  0  0  0  0  0  0  0  0  0  0  0
    4.5981   -4.0000    0.0000 C   0  0  0  0  0  0  0  0  0  0  0  0
    2.8660   -3.0000    0.0000 C   0  0  0  0  0  0  0  0  0  0  0  0
    3.7320   -4.5000    0.0000 C   0  0  0  0  0  0  0  0  0  0  0  0
    2.8660   -4.0000    0.0000 C   0  0  0  0  0  0  0  0  0  0  0  0
    4.8535    3.6077    0.0000 H   0  0  0  0  0  0  0  0  0  0  0  0
    5.2520    2.9174    0.0000 H   0  0  0  0  0  0  0  0  0  0  0  0
    5.1541    2.0369    0.0000 H   0  0  0  0  0  0  0  0  0  0  0  0
    4.9272    1.1900    0.0000 H   0  0  0  0  0  0  0  0  0  0  0  0
    5.7741    0.9631    0.0000 H   0  0  0  0  0  0  0  0  0  0  0  0
    8.9490    0.8454    0.0000 H   0  0  0  0  0  0  0  0  0  0  0  0
    6.8671   -0.6900    0.0000 H   0  0  0  0  0  0  0  0  0  0  0  0
    8.9490    4.1546    0.0000 H   0  0  0  0  0  0  0  0  0  0  0  0
    6.0841    4.5000    0.0000 H   0  0  0  0  0  0  0  0  0  0  0  0
    5.4641    5.1200    0.0000 H   0  0  0  0  0  0  0  0  0  0  0  0
    4.8441    4.5000    0.0000 H   0  0  0  0  0  0  0  0  0  0  0  0
   10.3979    1.6671    0.0000 H   0  0  0  0  0  0  0  0  0  0  0  0
   10.3979    3.3329    0.0000 H   0  0  0  0  0  0  0  0  0  0  0  0
    6.8862   -2.0369    0.0000 H   0  0  0  0  0  0  0  0  0  0  0  0
    7.7331   -1.8100    0.0000 H   0  0  0  0  0  0  0  0  0  0  0  0
    7.5062   -0.9631    0.0000 H   0  0  0  0  0  0  0  0  0  0  0  0
    6.0010   -2.8100    0.0000 H   0  0  0  0  0  0  0  0  0  0  0  0
    3.7320   -1.8800    0.0000 H   0  0  0  0  0  0  0  0  0  0  0  0
    5.1350   -4.3100    0.0000 H   0  0  0  0  0  0  0  0  0  0  0  0
    3.7320   -5.1200    0.0000 H   0  0  0  0  0  0  0  0  0  0  0  0
    2.3291   -4.3100    0.0000 H   0  0  0  0  0  0  0  0  0  0  0  0
  1 26  1  0  0  0  0
  2 14  1  0  0  0  0
 16  2  1  6  0  0  0
  3 14  2  0  0  0  0
  4 21  2  0  0  0  0
  5 10  2  0  0  0  0
  5 11  1  0  0  0  0
  6 21  1  0  0  0  0
  6 23  1  0  0  0  0
  6 45  1  0  0  0  0
  7  8  2  0  0  0  0
  7  9  1  0  0  0  0
  7 14  1  0  0  0  0
  8 10  1  0  0  0  0
  8 13  1  0  0  0  0
  9 11  1  0  0  0  0
  9 15  2  0  0  0  0
 10 12  1  0  0  0  0
 11 17  2  0  0  0  0
 12 18  1  0  0  0  0
 12 29  1  0  0  0  0
 12 30  1  0  0  0  0
 13 31  1  0  0  0  0
 13 32  1  0  0  0  0
 13 33  1  0  0  0  0
 15 19  1  0  0  0  0
 15 34  1  0  0  0  0
 16 21  1  0  0  0  0
 16 22  1  0  0  0  0
 16 35  1  0  0  0  0
 17 20  1  0  0  0  0
 17 36  1  0  0  0  0
 18 37  1  0  0  0  0
 18 38  1  0  0  0  0
 18 39  1  0  0  0  0
 19 20  2  0  0  0  0
 19 40  1  0  0  0  0
 20 41  1  0  0  0  0
 22 42  1  0  0  0  0
 22 43  1  0  0  0  0
 22 44  1  0  0  0  0
 23 24  2  0  0  0  0
 23 25  1  0  0  0  0
 24 26  1  0  0  0  0
 24 46  1  0  0  0  0
 25 27  2  0  0  0  0
 25 47  1  0  0  0  0
 26 28  2  0  0  0  0
 27 28  1  0  0  0  0
 27 48  1  0  0  0  0
 28 49  1  0  0  0  0
M  END
> <PUBCHEM_COMPOUND_CID>
7847052

> <PUBCHEM_COMPOUND_CANONICALIZED>
1

> <PUBCHEM_CACTVS_COMPLEXITY>
558

> <PUBCHEM_CACTVS_HBOND_ACCEPTOR>
4

> <PUBCHEM_CACTVS_HBOND_DONOR>
1

> <PUBCHEM_CACTVS_ROTATABLE_BOND>
6

> <PUBCHEM_CACTVS_SUBSKEYS>
AAADceB7MAAEAAAAAAAAAAAAAAAAAAAAAAA8YIAAAAAAAACx9AAAHgIQAAAADB6hniIyyPLIFACoAyXyXAKCgCAlByAImCFwbtgKJvLBt52HMQhk1AHY6Qe8yOCOgAAAAAICAAAAAAAABAQAAAAAAAAAAA==

> <PUBCHEM_IUPAC_OPENEYE_NAME>
[(1R)-2-(3-chloroanilino)-1-methyl-2-oxo-ethyl] 2-ethyl-3-methyl-quinoline-4-carboxylate

> <PUBCHEM_IUPAC_CAS_NAME>
2-ethyl-3-methyl-4-quinolinecarboxylic acid [(2R)-1-(3-chloroanilino)-1-oxopropan-2-yl] ester

> <PUBCHEM_IUPAC_NAME>
[(2R)-1-(3-chloroanilino)-1-oxopropan-2-yl] 2-ethyl-3-methylquinoline-4-carboxylate

> <PUBCHEM_IUPAC_SYSTEMATIC_NAME>
[(2R)-1-[(3-chlorophenyl)amino]-1-oxidanylidene-propan-2-yl] 2-ethyl-3-methyl-quinoline-4-carboxylate

> <PUBCHEM_IUPAC_TRADITIONAL_NAME>
2-ethyl-3-methyl-cinchoninic acid [(1R)-2-(3-chloroanilino)-2-keto-1-methyl-ethyl] ester

> <PUBCHEM_IUPAC_INCHI>
InChI=1S/C22H21ClN2O3/c1-4-18-13(2)20(17-10-5-6-11-19(17)25-18)22(27)28-14(3)21(26)24-16-9-7-8-15(23)12-16/h5-12,14H,4H2,1-3H3,(H,24,26)/t14-/m1/s1

> <PUBCHEM_IUPAC_INCHIKEY>
YEKMLPYZAZSAKP-CQSZACIVSA-N

> <PUBCHEM_XLOGP3_AA>
5.2

> <PUBCHEM_EXACT_MASS>
396.12407

> <PUBCHEM_MOLECULAR_FORMULA>
C22H21ClN2O3

> <PUBCHEM_MOLECULAR_WEIGHT>
396.86674

> <PUBCHEM_OPENEYE_CAN_SMILES>
CCC1=NC2=CC=CC=C2C(=C1C)C(=O)OC(C)C(=O)NC3=CC(=CC=C3)Cl

> <PUBCHEM_OPENEYE_ISO_SMILES>
CCC1=NC2=CC=CC=C2C(=C1C)C(=O)O[C@H](C)C(=O)NC3=CC(=CC=C3)Cl

> <PUBCHEM_CACTVS_TPSA>
68.3

> <PUBCHEM_MONOISOTOPIC_WEIGHT>
396.12407

> <PUBCHEM_TOTAL_CHARGE>
0

> <PUBCHEM_HEAVY_ATOM_COUNT>
28

> <PUBCHEM_ATOM_DEF_STEREO_COUNT>
1

> <PUBCHEM_ATOM_UDEF_STEREO_COUNT>
0

> <PUBCHEM_BOND_DEF_STEREO_COUNT>
0

> <PUBCHEM_BOND_UDEF_STEREO_COUNT>
0

> <PUBCHEM_ISOTOPIC_ATOM_COUNT>
0

> <PUBCHEM_COMPONENT_COUNT>
1

> <PUBCHEM_CACTVS_TAUTO_COUNT>
18

> <PUBCHEM_COORDINATE_TYPE>
1
5
255

> <PUBCHEM_BONDANNOTATIONS>
11  17  8
15  19  8
17  20  8
19  20  8
16  2  6
23  24  8
23  25  8
24  26  8
25  27  8
26  28  8
27  28  8
5  10  8
5  11  8
7  8  8
7  9  8
8  10  8
9  11  8
9  15  8

$$$$

