14415
  -OEChem-06241222432D

 51 51  0     0  0  0  0  0  0999 V2000
    3.4700    0.0000    0.0000 Cl  0  5  0  0  0  0  0  0  0  0  0  0
    2.9030    5.2540    0.0000 O   0  0  0  0  0  0  0  0  0  0  0  0
    0.4030    6.1200    0.0000 O   0  0  0  0  0  0  0  0  0  0  0  0
    2.9030    6.9860    0.0000 O   0  0  0  0  0  0  0  0  0  0  0  0
    5.4030    4.3880    0.0000 N   0  3  0  0  0  0  0  0  0  0  0  0
    4.4030    4.3880    0.0000 C   0  0  0  0  0  0  0  0  0  0  0  0
    6.4030    4.3880    0.0000 C   0  0  0  0  0  0  0  0  0  0  0  0
    5.4030    3.3880    0.0000 C   0  0  0  0  0  0  0  0  0  0  0  0
    5.4030    5.3880    0.0000 C   0  0  0  0  0  0  0  0  0  0  0  0
    3.9030    5.2540    0.0000 C   0  0  0  0  0  0  0  0  0  0  0  0
    6.9030    3.5219    0.0000 C   0  0  0  0  0  0  0  0  0  0  0  0
    1.4030    6.1200    0.0000 C   0  0  0  0  0  0  0  0  0  0  0  0
    2.4030    6.1200    0.0000 C   0  0  0  0  0  0  0  0  0  0  0  0
    1.4030    5.1200    0.0000 C   0  0  0  0  0  0  0  0  0  0  0  0
    1.4030    7.1200    0.0000 C   0  0  0  0  0  0  0  0  0  0  0  0
    0.5369    4.6200    0.0000 C   0  0  0  0  0  0  0  0  0  0  0  0
    2.2690    7.6200    0.0000 C   0  0  0  0  0  0  0  0  0  0  0  0
    2.2690    4.6200    0.0000 C   0  0  0  0  0  0  0  0  0  0  0  0
    0.5369    7.6200    0.0000 C   0  0  0  0  0  0  0  0  0  0  0  0
    0.5369    3.6200    0.0000 C   0  0  0  0  0  0  0  0  0  0  0  0
    2.2690    8.6200    0.0000 C   0  0  0  0  0  0  0  0  0  0  0  0
    2.2690    3.6200    0.0000 C   0  0  0  0  0  0  0  0  0  0  0  0
    0.5369    8.6200    0.0000 C   0  0  0  0  0  0  0  0  0  0  0  0
    1.4030    3.1200    0.0000 C   0  0  0  0  0  0  0  0  0  0  0  0
    1.4030    9.1200    0.0000 C   0  0  0  0  0  0  0  0  0  0  0  0
    3.8204    4.1759    0.0000 H   0  0  0  0  0  0  0  0  0  0  0  0
    4.5106    3.7774    0.0000 H   0  0  0  0  0  0  0  0  0  0  0  0
    6.9856    4.6000    0.0000 H   0  0  0  0  0  0  0  0  0  0  0  0
    6.2953    4.9985    0.0000 H   0  0  0  0  0  0  0  0  0  0  0  0
    4.7830    3.3880    0.0000 H   0  0  0  0  0  0  0  0  0  0  0  0
    5.4030    2.7680    0.0000 H   0  0  0  0  0  0  0  0  0  0  0  0
    6.0230    3.3880    0.0000 H   0  0  0  0  0  0  0  0  0  0  0  0
    6.0230    5.3880    0.0000 H   0  0  0  0  0  0  0  0  0  0  0  0
    5.4030    6.0080    0.0000 H   0  0  0  0  0  0  0  0  0  0  0  0
    4.7830    5.3880    0.0000 H   0  0  0  0  0  0  0  0  0  0  0  0
    4.4856    5.4660    0.0000 H   0  0  0  0  0  0  0  0  0  0  0  0
    3.7953    5.8646    0.0000 H   0  0  0  0  0  0  0  0  0  0  0  0
    6.3660    3.2119    0.0000 H   0  0  0  0  0  0  0  0  0  0  0  0
    7.2130    2.9850    0.0000 H   0  0  0  0  0  0  0  0  0  0  0  0
    7.4399    3.8319    0.0000 H   0  0  0  0  0  0  0  0  0  0  0  0
    0.0000    4.9300    0.0000 H   0  0  0  0  0  0  0  0  0  0  0  0
    2.8059    7.3100    0.0000 H   0  0  0  0  0  0  0  0  0  0  0  0
    2.8059    4.9300    0.0000 H   0  0  0  0  0  0  0  0  0  0  0  0
    0.0000    7.3100    0.0000 H   0  0  0  0  0  0  0  0  0  0  0  0
    0.0930    6.6569    0.0000 H   0  0  0  0  0  0  0  0  0  0  0  0
    0.0000    3.3100    0.0000 H   0  0  0  0  0  0  0  0  0  0  0  0
    2.8059    8.9300    0.0000 H   0  0  0  0  0  0  0  0  0  0  0  0
    2.8059    3.3100    0.0000 H   0  0  0  0  0  0  0  0  0  0  0  0
    0.0000    8.9300    0.0000 H   0  0  0  0  0  0  0  0  0  0  0  0
    1.4030    2.5000    0.0000 H   0  0  0  0  0  0  0  0  0  0  0  0
    1.4030    9.7400    0.0000 H   0  0  0  0  0  0  0  0  0  0  0  0
  2 10  1  0  0  0  0
  2 13  1  0  0  0  0
  3 12  1  0  0  0  0
  3 45  1  0  0  0  0
  4 13  2  0  0  0  0
  5  6  1  0  0  0  0
  5  7  1  0  0  0  0
  5  8  1  0  0  0  0
  5  9  1  0  0  0  0
  6 10  1  0  0  0  0
  6 26  1  0  0  0  0
  6 27  1  0  0  0  0
  7 11  1  0  0  0  0
  7 28  1  0  0  0  0
  7 29  1  0  0  0  0
  8 30  1  0  0  0  0
  8 31  1  0  0  0  0
  8 32  1  0  0  0  0
  9 33  1  0  0  0  0
  9 34  1  0  0  0  0
  9 35  1  0  0  0  0
 10 36  1  0  0  0  0
 10 37  1  0  0  0  0
 11 38  1  0  0  0  0
 11 39  1  0  0  0  0
 11 40  1  0  0  0  0
 12 13  1  0  0  0  0
 12 14  1  0  0  0  0
 12 15  1  0  0  0  0
 14 16  2  0  0  0  0
 14 18  1  0  0  0  0
 15 17  2  0  0  0  0
 15 19  1  0  0  0  0
 16 20  1  0  0  0  0
 16 41  1  0  0  0  0
 17 21  1  0  0  0  0
 17 42  1  0  0  0  0
 18 22  2  0  0  0  0
 18 43  1  0  0  0  0
 19 23  2  0  0  0  0
 19 44  1  0  0  0  0
 20 24  2  0  0  0  0
 20 46  1  0  0  0  0
 21 25  2  0  0  0  0
 21 47  1  0  0  0  0
 22 24  1  0  0  0  0
 22 48  1  0  0  0  0
 23 25  1  0  0  0  0
 23 49  1  0  0  0  0
 24 50  1  0  0  0  0
 25 51  1  0  0  0  0
M  CHG  2   1  -1   5   1
M  END
> <PUBCHEM_COMPOUND_CID>
14415

> <PUBCHEM_COMPOUND_CANONICALIZED>
1

> <PUBCHEM_CACTVS_COMPLEXITY>
378

> <PUBCHEM_CACTVS_HBOND_ACCEPTOR>
4

> <PUBCHEM_CACTVS_HBOND_DONOR>
1

> <PUBCHEM_CACTVS_ROTATABLE_BOND>
8

> <PUBCHEM_CACTVS_SUBSKEYS>
AAADceB6MAAEAAAAAAAAAAAAAAAAAAAAAAAwYAAAAAAAAAABQAAAHgAACAAADEThmAYyCIMABgCIAiDSCAICAAAgAAAIiAFICIgLJjKAFRCDcAAkwAGbmAeIyOCOgAAAAAAAAAAAAAAAAAAAAAAAAAAAAA==

> <PUBCHEM_IUPAC_OPENEYE_NAME>
ethyl-[2-(2-hydroxy-2,2-diphenyl-acetyl)oxyethyl]-dimethyl-ammonium chloride

> <PUBCHEM_IUPAC_CAS_NAME>
ethyl-[2-(2-hydroxy-1-oxo-2,2-diphenylethoxy)ethyl]-dimethylammonium chloride

> <PUBCHEM_IUPAC_NAME>
ethyl-[2-(2-hydroxy-2,2-diphenylacetyl)oxyethyl]-dimethylazanium chloride

> <PUBCHEM_IUPAC_SYSTEMATIC_NAME>
ethyl-dimethyl-[2-(2-oxidanyl-2,2-diphenyl-ethanoyl)oxyethyl]azanium chloride

> <PUBCHEM_IUPAC_TRADITIONAL_NAME>
2-benziloyloxyethyl-ethyl-dimethyl-ammonium chloride

> <PUBCHEM_IUPAC_INCHI>
InChI=1S/C20H26NO3.ClH/c1-4-21(2,3)15-16-24-19(22)20(23,17-11-7-5-8-12-17)18-13-9-6-10-14-18;/h5-14,23H,4,15-16H2,1-3H3;1H/q+1;/p-1

> <PUBCHEM_IUPAC_INCHIKEY>
TVCAZGSWNBZVJN-UHFFFAOYSA-M

> <PUBCHEM_EXACT_MASS>
363.160121

> <PUBCHEM_MOLECULAR_FORMULA>
C20H26ClNO3

> <PUBCHEM_MOLECULAR_WEIGHT>
363.87834

> <PUBCHEM_OPENEYE_CAN_SMILES>
CC[N+](C)(C)CCOC(=O)C(C1=CC=CC=C1)(C2=CC=CC=C2)O.[Cl-]

> <PUBCHEM_OPENEYE_ISO_SMILES>
CC[N+](C)(C)CCOC(=O)C(C1=CC=CC=C1)(C2=CC=CC=C2)O.[Cl-]

> <PUBCHEM_CACTVS_TPSA>
46.5

> <PUBCHEM_MONOISOTOPIC_WEIGHT>
363.160121

> <PUBCHEM_TOTAL_CHARGE>
0

> <PUBCHEM_HEAVY_ATOM_COUNT>
25

> <PUBCHEM_ATOM_DEF_STEREO_COUNT>
0

> <PUBCHEM_ATOM_UDEF_STEREO_COUNT>
0

> <PUBCHEM_BOND_DEF_STEREO_COUNT>
0

> <PUBCHEM_BOND_UDEF_STEREO_COUNT>
0

> <PUBCHEM_ISOTOPIC_ATOM_COUNT>
0

> <PUBCHEM_COMPONENT_COUNT>
2

> <PUBCHEM_CACTVS_TAUTO_COUNT>
1

> <PUBCHEM_COORDINATE_TYPE>
1
5
255

> <PUBCHEM_BONDANNOTATIONS>
14  16  8
14  18  8
15  17  8
15  19  8
16  20  8
17  21  8
18  22  8
19  23  8
20  24  8
21  25  8
22  24  8
23  25  8

$$$$

