17395981
  -OEChem-06241222532D

 42 45  0     0  0  0  0  0  0999 V2000
    3.8968    2.1206    0.0000 S   0  0  0  0  0  0  0  0  0  0  0  0
    5.0778    0.3981    0.0000 O   0  0  0  0  0  0  0  0  0  0  0  0
    3.6180    3.8807    0.0000 N   0  0  0  0  0  0  0  0  0  0  0  0
    2.8090    4.4685    0.0000 N   0  0  0  0  0  0  0  0  0  0  0  0
    2.3090    2.9296    0.0000 N   0  0  0  0  0  0  0  0  0  0  0  0
    2.0000    3.8807    0.0000 N   0  0  0  0  0  0  0  0  0  0  0  0
    3.7688   -0.5530    0.0000 N   0  0  0  0  0  0  0  0  0  0  0  0
    5.3869   -0.5530    0.0000 N   0  0  0  0  0  0  0  0  0  0  0  0
    4.5691    4.1897    0.0000 C   0  0  0  0  0  0  0  0  0  0  0  0
    5.3781    3.6019    0.0000 C   0  0  0  0  0  0  0  0  0  0  0  0
    4.8781    5.1408    0.0000 C   0  0  0  0  0  0  0  0  0  0  0  0
    5.8781    5.1408    0.0000 C   0  0  0  0  0  0  0  0  0  0  0  0
    6.1871    4.1897    0.0000 C   0  0  0  0  0  0  0  0  0  0  0  0
    3.3090    2.9296    0.0000 C   0  0  0  0  0  0  0  0  0  0  0  0
    3.4901    1.2071    0.0000 C   0  0  0  0  0  0  0  0  0  0  0  0
    4.0778    0.3981    0.0000 C   0  0  0  0  0  0  0  0  0  0  0  0
    4.5778   -2.1408    0.0000 C   0  0  0  0  0  0  0  0  0  0  0  0
    4.5778   -1.1408    0.0000 C   0  0  0  0  0  0  0  0  0  0  0  0
    4.5778   -4.1408    0.0000 C   0  0  0  0  0  0  0  0  0  0  0  0
    3.7118   -2.6408    0.0000 C   0  0  0  0  0  0  0  0  0  0  0  0
    5.4439   -2.6408    0.0000 C   0  0  0  0  0  0  0  0  0  0  0  0
    3.7118   -3.6408    0.0000 C   0  0  0  0  0  0  0  0  0  0  0  0
    5.4439   -3.6408    0.0000 C   0  0  0  0  0  0  0  0  0  0  0  0
    4.5778   -5.1408    0.0000 C   0  0  0  0  0  0  0  0  0  0  0  0
    4.1307    4.6281    0.0000 H   0  0  0  0  0  0  0  0  0  0  0  0
    4.9429    5.7574    0.0000 H   0  0  0  0  0  0  0  0  0  0  0  0
    4.2717    5.2697    0.0000 H   0  0  0  0  0  0  0  0  0  0  0  0
    4.9633    3.1412    0.0000 H   0  0  0  0  0  0  0  0  0  0  0  0
    5.7930    3.1412    0.0000 H   0  0  0  0  0  0  0  0  0  0  0  0
    6.4846    5.2697    0.0000 H   0  0  0  0  0  0  0  0  0  0  0  0
    5.8133    5.7574    0.0000 H   0  0  0  0  0  0  0  0  0  0  0  0
    6.4971    3.6528    0.0000 H   0  0  0  0  0  0  0  0  0  0  0  0
    6.7535    4.4419    0.0000 H   0  0  0  0  0  0  0  0  0  0  0  0
    2.9761    1.5538    0.0000 H   0  0  0  0  0  0  0  0  0  0  0  0
    3.0594    0.7611    0.0000 H   0  0  0  0  0  0  0  0  0  0  0  0
    3.1749   -2.3308    0.0000 H   0  0  0  0  0  0  0  0  0  0  0  0
    5.9808   -2.3308    0.0000 H   0  0  0  0  0  0  0  0  0  0  0  0
    3.1749   -3.9508    0.0000 H   0  0  0  0  0  0  0  0  0  0  0  0
    5.9808   -3.9508    0.0000 H   0  0  0  0  0  0  0  0  0  0  0  0
    3.9578   -5.1408    0.0000 H   0  0  0  0  0  0  0  0  0  0  0  0
    4.5778   -5.7608    0.0000 H   0  0  0  0  0  0  0  0  0  0  0  0
    5.1978   -5.1408    0.0000 H   0  0  0  0  0  0  0  0  0  0  0  0
  1 14  1  0  0  0  0
  1 15  1  0  0  0  0
  2  8  1  0  0  0  0
  2 16  1  0  0  0  0
  3  4  1  0  0  0  0
  3  9  1  0  0  0  0
  3 14  1  0  0  0  0
  4  6  2  0  0  0  0
  5  6  1  0  0  0  0
  5 14  2  0  0  0  0
  7 16  2  0  0  0  0
  7 18  1  0  0  0  0
  8 18  2  0  0  0  0
  9 10  1  0  0  0  0
  9 11  1  0  0  0  0
  9 25  1  0  0  0  0
 10 13  1  0  0  0  0
 10 28  1  0  0  0  0
 10 29  1  0  0  0  0
 11 12  1  0  0  0  0
 11 26  1  0  0  0  0
 11 27  1  0  0  0  0
 12 13  1  0  0  0  0
 12 30  1  0  0  0  0
 12 31  1  0  0  0  0
 13 32  1  0  0  0  0
 13 33  1  0  0  0  0
 15 16  1  0  0  0  0
 15 34  1  0  0  0  0
 15 35  1  0  0  0  0
 17 18  1  0  0  0  0
 17 20  2  0  0  0  0
 17 21  1  0  0  0  0
 19 22  2  0  0  0  0
 19 23  1  0  0  0  0
 19 24  1  0  0  0  0
 20 22  1  0  0  0  0
 20 36  1  0  0  0  0
 21 23  2  0  0  0  0
 21 37  1  0  0  0  0
 22 38  1  0  0  0  0
 23 39  1  0  0  0  0
 24 40  1  0  0  0  0
 24 41  1  0  0  0  0
 24 42  1  0  0  0  0
M  END
> <PUBCHEM_COMPOUND_CID>
17395981

> <PUBCHEM_COMPOUND_CANONICALIZED>
1

> <PUBCHEM_CACTVS_COMPLEXITY>
402

> <PUBCHEM_CACTVS_HBOND_ACCEPTOR>
7

> <PUBCHEM_CACTVS_HBOND_DONOR>
0

> <PUBCHEM_CACTVS_ROTATABLE_BOND>
5

> <PUBCHEM_CACTVS_SUBSKEYS>
AAADceB7oABAAAAAAAAAAAAAAAAAAeLEAAAwAAAAAAAAAAAB8AAAHgQMAAAADCjF2wSzEIYYEAirAiNyNgCCkAtggLA9yCA4BJiIKKKAmRGEIAhghQKIiAcQgAAOQAAAAAAAAACAAAAAAAAAAAAAAAAAAA==

> <PUBCHEM_IUPAC_OPENEYE_NAME>
5-[(1-cyclopentyltetrazol-5-yl)sulfanylmethyl]-3-(p-tolyl)-1,2,4-oxadiazole

> <PUBCHEM_IUPAC_CAS_NAME>
5-[[(1-cyclopentyl-5-tetrazolyl)thio]methyl]-3-(4-methylphenyl)-1,2,4-oxadiazole

> <PUBCHEM_IUPAC_NAME>
5-[(1-cyclopentyltetrazol-5-yl)sulfanylmethyl]-3-(4-methylphenyl)-1,2,4-oxadiazole

> <PUBCHEM_IUPAC_SYSTEMATIC_NAME>
5-[(1-cyclopentyl-1,2,3,4-tetrazol-5-yl)sulfanylmethyl]-3-(4-methylphenyl)-1,2,4-oxadiazole

> <PUBCHEM_IUPAC_TRADITIONAL_NAME>
5-[[(1-cyclopentyltetrazol-5-yl)thio]methyl]-3-(p-tolyl)-1,2,4-oxadiazole

> <PUBCHEM_IUPAC_INCHI>
InChI=1S/C16H18N6OS/c1-11-6-8-12(9-7-11)15-17-14(23-19-15)10-24-16-18-20-21-22(16)13-4-2-3-5-13/h6-9,13H,2-5,10H2,1H3

> <PUBCHEM_IUPAC_INCHIKEY>
HVHBSKZQJWTETF-UHFFFAOYSA-N

> <PUBCHEM_XLOGP3_AA>
3.4

> <PUBCHEM_EXACT_MASS>
342.12628

> <PUBCHEM_MOLECULAR_FORMULA>
C16H18N6OS

> <PUBCHEM_MOLECULAR_WEIGHT>
342.41872

> <PUBCHEM_OPENEYE_CAN_SMILES>
CC1=CC=C(C=C1)C2=NOC(=N2)CSC3=NN=NN3C4CCCC4

> <PUBCHEM_OPENEYE_ISO_SMILES>
CC1=CC=C(C=C1)C2=NOC(=N2)CSC3=NN=NN3C4CCCC4

> <PUBCHEM_CACTVS_TPSA>
108

> <PUBCHEM_MONOISOTOPIC_WEIGHT>
342.12628

> <PUBCHEM_TOTAL_CHARGE>
0

> <PUBCHEM_HEAVY_ATOM_COUNT>
24

> <PUBCHEM_ATOM_DEF_STEREO_COUNT>
0

> <PUBCHEM_ATOM_UDEF_STEREO_COUNT>
0

> <PUBCHEM_BOND_DEF_STEREO_COUNT>
0

> <PUBCHEM_BOND_UDEF_STEREO_COUNT>
0

> <PUBCHEM_ISOTOPIC_ATOM_COUNT>
0

> <PUBCHEM_COMPONENT_COUNT>
1

> <PUBCHEM_CACTVS_TAUTO_COUNT>
1

> <PUBCHEM_COORDINATE_TYPE>
1
5
255

> <PUBCHEM_BONDANNOTATIONS>
17  20  8
17  21  8
19  22  8
19  23  8
2  16  8
2  8  8
20  22  8
21  23  8
3  14  8
3  4  8
4  6  8
5  14  8
5  6  8
7  16  8
7  18  8
8  18  8

$$$$

