4103
  -OEChem-06251223533D

 46 48  0     1  0  0  0  0  0999 V2000
   -2.9384   -2.2145   -0.6119 S   0  0  0  0  0  0  0  0  0  0  0  0
   -1.4762    1.8650   -1.3587 O   0  0  0  0  0  0  0  0  0  0  0  0
   -3.6460    1.8009    1.6481 O   0  0  0  0  0  0  0  0  0  0  0  0
   -5.7400    1.4967    0.8005 O   0  0  0  0  0  0  0  0  0  0  0  0
    1.8680   -0.0644   -2.0877 O   0  0  0  0  0  0  0  0  0  0  0  0
    3.4375   -2.3391   -0.1509 O   0  0  0  0  0  0  0  0  0  0  0  0
    2.7285    2.4059    0.0071 O   0  0  0  0  0  0  0  0  0  0  0  0
   -2.4239    0.2362    0.0626 N   0  0  0  0  0  0  0  0  0  0  0  0
    0.6511   -0.3270   -0.1325 N   0  0  0  0  0  0  0  0  0  0  0  0
   -1.7429   -1.0592    0.1507 C   0  0  2  0  0  0  0  0  0  0  0  0
   -4.3693   -1.1864   -0.0110 C   0  0  0  0  0  0  0  0  0  0  0  0
   -3.8625    0.2678   -0.1361 C   0  0  1  0  0  0  0  0  0  0  0  0
   -0.6600   -0.4805   -0.7700 C   0  0  1  0  0  0  0  0  0  0  0  0
   -1.5047    0.8085   -0.7690 C   0  0  0  0  0  0  0  0  0  0  0  0
   -5.5791   -1.4412   -0.9122 C   0  0  0  0  0  0  0  0  0  0  0  0
   -4.6862   -1.6165    1.4286 C   0  0  0  0  0  0  0  0  0  0  0  0
   -4.5449    1.2419    0.8015 C   0  0  0  0  0  0  0  0  0  0  0  0
    1.8241   -0.1284   -0.8618 C   0  0  0  0  0  0  0  0  0  0  0  0
    3.0746    0.0323   -0.0775 C   0  0  0  0  0  0  0  0  0  0  0  0
    3.8179   -1.0892    0.2381 C   0  0  0  0  0  0  0  0  0  0  0  0
    3.4617    1.2990    0.3162 C   0  0  0  0  0  0  0  0  0  0  0  0
    4.9926   -0.9381    0.9750 C   0  0  0  0  0  0  0  0  0  0  0  0
    4.6365    1.4501    1.0530 C   0  0  0  0  0  0  0  0  0  0  0  0
    5.4020    0.3314    1.3824 C   0  0  0  0  0  0  0  0  0  0  0  0
    4.2610   -3.4261    0.2181 C   0  0  0  0  0  0  0  0  0  0  0  0
    3.0186    3.0750   -1.2028 C   0  0  0  0  0  0  0  0  0  0  0  0
   -1.4456   -1.3039    1.1751 H   0  0  0  0  0  0  0  0  0  0  0  0
   -4.0282    0.6550   -1.1512 H   0  0  0  0  0  0  0  0  0  0  0  0
   -0.5920   -0.9461   -1.7598 H   0  0  0  0  0  0  0  0  0  0  0  0
   -5.8941   -2.4906   -0.8773 H   0  0  0  0  0  0  0  0  0  0  0  0
   -6.4352   -0.8344   -0.5968 H   0  0  0  0  0  0  0  0  0  0  0  0
   -5.3686   -1.1888   -1.9579 H   0  0  0  0  0  0  0  0  0  0  0  0
   -4.9098   -2.6886    1.4864 H   0  0  0  0  0  0  0  0  0  0  0  0
   -3.8585   -1.4091    2.1161 H   0  0  0  0  0  0  0  0  0  0  0  0
   -5.5677   -1.0915    1.8132 H   0  0  0  0  0  0  0  0  0  0  0  0
    0.7280   -0.3534    0.8819 H   0  0  0  0  0  0  0  0  0  0  0  0
   -4.0689    2.4361    2.2645 H   0  0  0  0  0  0  0  0  0  0  0  0
    5.6357   -1.7615    1.2661 H   0  0  0  0  0  0  0  0  0  0  0  0
    4.9612    2.4359    1.3750 H   0  0  0  0  0  0  0  0  0  0  0  0
    6.3165    0.4503    1.9563 H   0  0  0  0  0  0  0  0  0  0  0  0
    3.7987   -4.3365   -0.1779 H   0  0  0  0  0  0  0  0  0  0  0  0
    4.3129   -3.5468    1.3057 H   0  0  0  0  0  0  0  0  0  0  0  0
    5.2559   -3.3555   -0.2349 H   0  0  0  0  0  0  0  0  0  0  0  0
    2.9818    2.3943   -2.0585 H   0  0  0  0  0  0  0  0  0  0  0  0
    4.0059    3.5452   -1.1503 H   0  0  0  0  0  0  0  0  0  0  0  0
    2.2710    3.8588   -1.3534 H   0  0  0  0  0  0  0  0  0  0  0  0
  1 10  1  0  0  0  0
  1 11  1  0  0  0  0
  2 14  2  0  0  0  0
  3 17  1  0  0  0  0
  3 37  1  0  0  0  0
  4 17  2  0  0  0  0
  5 18  2  0  0  0  0
  6 20  1  0  0  0  0
  6 25  1  0  0  0  0
  7 21  1  0  0  0  0
  7 26  1  0  0  0  0
  8 10  1  0  0  0  0
  8 12  1  0  0  0  0
  8 14  1  0  0  0  0
  9 13  1  0  0  0  0
  9 18  1  0  0  0  0
  9 36  1  0  0  0  0
 10 13  1  0  0  0  0
 10 27  1  0  0  0  0
 11 12  1  0  0  0  0
 11 15  1  0  0  0  0
 11 16  1  0  0  0  0
 12 17  1  0  0  0  0
 12 28  1  0  0  0  0
 13 14  1  0  0  0  0
 13 29  1  0  0  0  0
 15 30  1  0  0  0  0
 15 31  1  0  0  0  0
 15 32  1  0  0  0  0
 16 33  1  0  0  0  0
 16 34  1  0  0  0  0
 16 35  1  0  0  0  0
 18 19  1  0  0  0  0
 19 20  2  0  0  0  0
 19 21  1  0  0  0  0
 20 22  1  0  0  0  0
 21 23  2  0  0  0  0
 22 24  2  0  0  0  0
 22 38  1  0  0  0  0
 23 24  1  0  0  0  0
 23 39  1  0  0  0  0
 24 40  1  0  0  0  0
 25 41  1  0  0  0  0
 25 42  1  0  0  0  0
 25 43  1  0  0  0  0
 26 44  1  0  0  0  0
 26 45  1  0  0  0  0
 26 46  1  0  0  0  0
M  END
> <PUBCHEM_COMPOUND_CID>
4103

> <PUBCHEM_CONFORMER_RMSD>
0.8

> <PUBCHEM_CONFORMER_DIVERSEORDER>
8
75
87
56
63
43
88
33
38
70
78
31
27
83
15
48
86
74
32
73
41
82
79
68
3
71
45
37
57
84
81
34
14
24
85
49
69
19
76
50
72
11
39
54
25
35
42
55
59
64
53
28
17
77
80
13
22
60
12
51
18
61
58
44
46
52
16
40
20
7
62
2
1
65
67
66
47
23
4
26
21
9
30
29
5
36
6
10

> <PUBCHEM_MMFF94_PARTIAL_CHARGES>
29
1 -0.45
10 0.44
11 0.23
12 0.36
13 0.28
14 0.58
17 0.66
18 0.54
19 0.09
2 -0.57
20 0.08
21 0.08
22 -0.15
23 -0.15
24 -0.15
25 0.28
26 0.28
3 -0.65
36 0.37
37 0.5
38 0.15
39 0.15
4 -0.57
40 0.15
5 -0.57
6 -0.36
7 -0.36
8 -0.59
9 -0.65

> <PUBCHEM_EFFECTIVE_ROTOR_COUNT>
6.8

> <PUBCHEM_PHARMACOPHORE_FEATURES>
12
1 2 acceptor
1 3 acceptor
1 4 acceptor
1 5 acceptor
1 6 acceptor
1 7 acceptor
1 9 donor
3 11 15 16 hydrophobe
3 3 4 17 anion
4 8 10 13 14 rings
6 19 20 21 22 23 24 rings
7 1 8 10 11 12 13 14 rings

> <PUBCHEM_HEAVY_ATOM_COUNT>
26

> <PUBCHEM_ATOM_DEF_STEREO_COUNT>
0

> <PUBCHEM_ATOM_UDEF_STEREO_COUNT>
3

> <PUBCHEM_BOND_DEF_STEREO_COUNT>
0

> <PUBCHEM_BOND_UDEF_STEREO_COUNT>
0

> <PUBCHEM_ISOTOPIC_ATOM_COUNT>
0

> <PUBCHEM_COMPONENT_COUNT>
1

> <PUBCHEM_CACTVS_TAUTO_COUNT>
2

> <PUBCHEM_CONFORMER_ID>
0000100700000008

> <PUBCHEM_MMFF94_ENERGY>
97.6388

> <PUBCHEM_FEATURE_SELFOVERLAP>
64.689

> <PUBCHEM_SHAPE_FINGERPRINT>
10366900 7 18131345281148580616
10595046 47 18261398797573468751
10670039 82 14996269324128813936
11370993 144 18336828696800064915
11405975 8 18409725179665939779
11552529 35 18116160982329723231
12107183 9 17974003148131151411
12403259 118 18187366515033002961
12596602 18 17967255290948047034
12633257 1 18413673500199309476
12892183 10 18335138682803106226
13073987 5 18333732420785886619
13533116 47 18411139129944593119
13583140 156 18336282188065751806
13914758 101 17846513547426312301
14341114 176 18335138700478808730
14849402 71 18267588992989925776
15250474 111 18263651671044978607
15788980 27 15985108487887509487
17349148 13 16415758630675320979
17818456 19 18041837436360000480
17844677 252 18261106387425263427
17980427 23 18187080638416512333
1813 80 17203607103405140966
18222031 100 16559037086392412702
19377110 9 18114456761113569339
20715895 44 17970342839990191361
21033648 29 14129055945674266123
21065198 48 18333734619466192042
21065199 12 18411143558371808234
21792934 111 18413669132966474057
21859007 373 17842565316834977437
23503953 91 18410294709314274576
23559900 14 17750212850622932518
3117164 225 18264766743296407321
3633792 109 18270699635880400959
3680242 22 18262506109078184769
460360 51 18262218002592477161
5104073 3 18335696174338787931
7097593 13 18409455790991145646
960060 61 11024112048994799298
9709674 26 18343584027654052002
9841814 1 16271924900881590716

> <PUBCHEM_SHAPE_MULTIPOLES>
493.74
14.01
2.97
1.36
3.83
0.38
-0.04
1.61
4.83
-2.15
-0.21
0.12
-0.37
-1

> <PUBCHEM_SHAPE_SELFOVERLAP>
1039.975

> <PUBCHEM_SHAPE_VOLUME>
281.9

> <PUBCHEM_COORDINATE_TYPE>
2
5
10

$$$$

