47205086
  -OEChem-06241222582D

 23 24  0     0  0  0  0  0  0999 V2000
    6.9019    1.2579    0.0000 S   0  0  0  0  0  0  0  0  0  0  0  0
    6.4712   -1.3839    0.0000 O   0  0  0  0  0  0  0  0  0  0  0  0
    5.3122   -0.0967    0.0000 N   0  0  0  0  0  0  0  0  0  0  0  0
    2.8090   -1.0446    0.0000 N   0  0  0  0  0  0  0  0  0  0  0  0
    2.0000   -0.4568    0.0000 N   0  0  0  0  0  0  0  0  0  0  0  0
    4.5691   -0.7659    0.0000 C   0  0  0  0  0  0  0  0  0  0  0  0
    3.6180   -0.4568    0.0000 C   0  0  0  0  0  0  0  0  0  0  0  0
    6.2633   -0.4058    0.0000 C   0  0  0  0  0  0  0  0  0  0  0  0
    3.3090    0.4942    0.0000 C   0  0  0  0  0  0  0  0  0  0  0  0
    7.0064    0.2634    0.0000 C   0  0  0  0  0  0  0  0  0  0  0  0
    7.9846    0.0555    0.0000 C   0  0  0  0  0  0  0  0  0  0  0  0
    2.3090    0.4942    0.0000 C   0  0  0  0  0  0  0  0  0  0  0  0
    8.4846    0.9215    0.0000 C   0  0  0  0  0  0  0  0  0  0  0  0
    7.8154    1.6646    0.0000 C   0  0  0  0  0  0  0  0  0  0  0  0
    4.2780   -1.3133    0.0000 H   0  0  0  0  0  0  0  0  0  0  0  0
    5.0577   -1.1476    0.0000 H   0  0  0  0  0  0  0  0  0  0  0  0
    5.1833    0.5097    0.0000 H   0  0  0  0  0  0  0  0  0  0  0  0
    3.6734    0.9958    0.0000 H   0  0  0  0  0  0  0  0  0  0  0  0
    2.8090   -1.6646    0.0000 H   0  0  0  0  0  0  0  0  0  0  0  0
    8.2368   -0.5109    0.0000 H   0  0  0  0  0  0  0  0  0  0  0  0
    1.9446    0.9958    0.0000 H   0  0  0  0  0  0  0  0  0  0  0  0
    9.1012    0.9863    0.0000 H   0  0  0  0  0  0  0  0  0  0  0  0
    7.9444    2.2711    0.0000 H   0  0  0  0  0  0  0  0  0  0  0  0
  1 10  1  0  0  0  0
  1 14  1  0  0  0  0
  2  8  2  0  0  0  0
  3  6  1  0  0  0  0
  3  8  1  0  0  0  0
  3 17  1  0  0  0  0
  4  5  1  0  0  0  0
  4  7  1  0  0  0  0
  4 19  1  0  0  0  0
  5 12  2  0  0  0  0
  6  7  1  0  0  0  0
  6 15  1  0  0  0  0
  6 16  1  0  0  0  0
  7  9  2  0  0  0  0
  8 10  1  0  0  0  0
  9 12  1  0  0  0  0
  9 18  1  0  0  0  0
 10 11  2  0  0  0  0
 11 13  1  0  0  0  0
 11 20  1  0  0  0  0
 12 21  1  0  0  0  0
 13 14  2  0  0  0  0
 13 22  1  0  0  0  0
 14 23  1  0  0  0  0
M  END
> <PUBCHEM_COMPOUND_CID>
47205086

> <PUBCHEM_COMPOUND_CANONICALIZED>
1

> <PUBCHEM_CACTVS_COMPLEXITY>
212

> <PUBCHEM_CACTVS_HBOND_ACCEPTOR>
3

> <PUBCHEM_CACTVS_HBOND_DONOR>
2

> <PUBCHEM_CACTVS_ROTATABLE_BOND>
3

> <PUBCHEM_CACTVS_SUBSKEYS>
AAADccBzIABAAAAAAAAAAAAAAAAAAWJAAAAAAAAAAAAAAAAB4AAAHgQYAAAACAjF1gS8gZLjAAiuATV3UACTBIAkihBYubk4ZNgIYLKg1dGUhQhgngCoyYYYAAAAAAAAAAAAAAAAAAAAAAAAAAAAAAAAAA==

> <PUBCHEM_IUPAC_OPENEYE_NAME>
N-(1H-pyrazol-5-ylmethyl)thiophene-2-carboxamide

> <PUBCHEM_IUPAC_CAS_NAME>
N-(1H-pyrazol-5-ylmethyl)-2-thiophenecarboxamide

> <PUBCHEM_IUPAC_NAME>
N-(1H-pyrazol-5-ylmethyl)thiophene-2-carboxamide

> <PUBCHEM_IUPAC_SYSTEMATIC_NAME>
N-(1H-pyrazol-5-ylmethyl)thiophene-2-carboxamide

> <PUBCHEM_IUPAC_TRADITIONAL_NAME>
N-(1H-pyrazol-5-ylmethyl)thiophene-2-carboxamide

> <PUBCHEM_IUPAC_INCHI>
InChI=1S/C9H9N3OS/c13-9(8-2-1-5-14-8)10-6-7-3-4-11-12-7/h1-5H,6H2,(H,10,13)(H,11,12)

> <PUBCHEM_IUPAC_INCHIKEY>
VPOIFXPNQWGTEQ-UHFFFAOYSA-N

> <PUBCHEM_XLOGP3_AA>
1

> <PUBCHEM_EXACT_MASS>
207.046633

> <PUBCHEM_MOLECULAR_FORMULA>
C9H9N3OS

> <PUBCHEM_MOLECULAR_WEIGHT>
207.25226

> <PUBCHEM_OPENEYE_CAN_SMILES>
C1=CSC(=C1)C(=O)NCC2=CC=NN2

> <PUBCHEM_OPENEYE_ISO_SMILES>
C1=CSC(=C1)C(=O)NCC2=CC=NN2

> <PUBCHEM_CACTVS_TPSA>
86

> <PUBCHEM_MONOISOTOPIC_WEIGHT>
207.046633

> <PUBCHEM_TOTAL_CHARGE>
0

> <PUBCHEM_HEAVY_ATOM_COUNT>
14

> <PUBCHEM_ATOM_DEF_STEREO_COUNT>
0

> <PUBCHEM_ATOM_UDEF_STEREO_COUNT>
0

> <PUBCHEM_BOND_DEF_STEREO_COUNT>
0

> <PUBCHEM_BOND_UDEF_STEREO_COUNT>
0

> <PUBCHEM_ISOTOPIC_ATOM_COUNT>
0

> <PUBCHEM_COMPONENT_COUNT>
1

> <PUBCHEM_CACTVS_TAUTO_COUNT>
4

> <PUBCHEM_COORDINATE_TYPE>
1
5
255

> <PUBCHEM_BONDANNOTATIONS>
1  10  8
1  14  8
10  11  8
11  13  8
13  14  8
4  5  8
4  7  8
5  12  8
7  9  8
9  12  8

$$$$

