12642
  -OEChem-06261207113D

 13 12  0     1  0  0  0  0  0999 V2000
   -2.6223    0.3859    0.2984 Cl  0  0  0  0  0  0  0  0  0  0  0  0
   -0.2512   -1.5410   -0.0641 O   0  0  0  0  0  0  0  0  0  0  0  0
    0.0441   -0.1732    0.2122 C   0  0  2  0  0  0  0  0  0  0  0  0
   -1.0224    0.7191   -0.4179 C   0  0  0  0  0  0  0  0  0  0  0  0
    1.3934    0.1219   -0.3756 C   0  0  0  0  0  0  0  0  0  0  0  0
    2.4585    0.4873    0.3470 C   0  0  0  0  0  0  0  0  0  0  0  0
    0.0572   -0.0467    1.3013 H   0  0  0  0  0  0  0  0  0  0  0  0
   -0.8046    1.7802   -0.2624 H   0  0  0  0  0  0  0  0  0  0  0  0
   -1.1197    0.5290   -1.4917 H   0  0  0  0  0  0  0  0  0  0  0  0
    1.5087    0.0189   -1.4519 H   0  0  0  0  0  0  0  0  0  0  0  0
   -1.1417   -1.7217    0.2825 H   0  0  0  0  0  0  0  0  0  0  0  0
    3.4098    0.6811   -0.1364 H   0  0  0  0  0  0  0  0  0  0  0  0
    2.4023    0.5994    1.4241 H   0  0  0  0  0  0  0  0  0  0  0  0
  1  4  1  0  0  0  0
  2  3  1  0  0  0  0
  2 11  1  0  0  0  0
  3  4  1  0  0  0  0
  3  5  1  0  0  0  0
  3  7  1  0  0  0  0
  4  8  1  0  0  0  0
  4  9  1  0  0  0  0
  5  6  2  0  0  0  0
  5 10  1  0  0  0  0
  6 12  1  0  0  0  0
  6 13  1  0  0  0  0
M  END
> <PUBCHEM_COMPOUND_CID>
12642

> <PUBCHEM_CONFORMER_RMSD>
0.4

> <PUBCHEM_CONFORMER_DIVERSEORDER>
1
9
12
4
10
2
11
3
8
6
7
5

> <PUBCHEM_MMFF94_PARTIAL_CHARGES>
10
1 -0.29
10 0.15
11 0.4
12 0.15
13 0.15
2 -0.68
3 0.42
4 0.29
5 -0.29
6 -0.3

> <PUBCHEM_EFFECTIVE_ROTOR_COUNT>
2

> <PUBCHEM_PHARMACOPHORE_FEATURES>
3
1 2 acceptor
1 2 donor
1 6 hydrophobe

> <PUBCHEM_HEAVY_ATOM_COUNT>
6

> <PUBCHEM_ATOM_DEF_STEREO_COUNT>
0

> <PUBCHEM_ATOM_UDEF_STEREO_COUNT>
1

> <PUBCHEM_BOND_DEF_STEREO_COUNT>
0

> <PUBCHEM_BOND_UDEF_STEREO_COUNT>
0

> <PUBCHEM_ISOTOPIC_ATOM_COUNT>
0

> <PUBCHEM_COMPONENT_COUNT>
1

> <PUBCHEM_CACTVS_TAUTO_COUNT>
1

> <PUBCHEM_CONFORMER_ID>
0000316200000001

> <PUBCHEM_MMFF94_ENERGY>
3.7741

> <PUBCHEM_FEATURE_SELFOVERLAP>
15.223

> <PUBCHEM_SHAPE_FINGERPRINT>
14390081 3 18114464556278855441
16714656 1 18341892969905713141
20096714 4 18411703192388989436
21040471 1 18411133636696596246
29004967 10 18130497626197463233
5460574 1 8935000369227438949

> <PUBCHEM_SHAPE_MULTIPOLES>
119.48
3.46
1.06
0.71
0.39
0.39
0
-0.95
0.53
0.1
-0.04
0
-0.06
0.07

> <PUBCHEM_SHAPE_SELFOVERLAP>
203.43

> <PUBCHEM_SHAPE_VOLUME>
81.3

> <PUBCHEM_COORDINATE_TYPE>
2
5
10

$$$$

