3904
  -OEChem-06251223453D

 55 57  0     1  0  0  0  0  0999 V2000
    6.0420    1.7829    2.0127 O   0  0  0  0  0  0  0  0  0  0  0  0
    4.7339   -1.7535    3.1825 O   0  0  0  0  0  0  0  0  0  0  0  0
   -4.5575   -1.2344   -1.4717 O   0  0  0  0  0  0  0  0  0  0  0  0
   -5.4866    2.6127    1.6862 O   0  5  0  0  0  0  0  0  0  0  0  0
   -6.3108    2.9609   -0.4143 O   0  0  0  0  0  0  0  0  0  0  0  0
   -9.6801    0.8036   -0.5757 O   0  5  0  0  0  0  0  0  0  0  0  0
   -8.2599   -0.9331   -1.0028 O   0  0  0  0  0  0  0  0  0  0  0  0
    5.0005   -0.7633    1.0692 N   0  0  0  0  0  0  0  0  0  0  0  0
    4.9162   -0.9377   -1.6962 N   0  0  0  0  0  0  0  0  0  0  0  0
    1.6303   -1.8870   -0.0747 N   0  0  0  0  0  0  0  0  0  0  0  0
    6.2153    1.0778   -1.8414 N   0  0  0  0  0  0  0  0  0  0  0  0
    7.0882    2.1984    0.0313 N   0  0  0  0  0  0  0  0  0  0  0  0
   -4.3756    0.3405    0.2205 N   0  0  0  0  0  0  0  0  0  0  0  0
    7.7284    2.7800   -2.1565 N   0  0  0  0  0  0  0  0  0  0  0  0
    3.9903   -1.6473    0.4358 C   0  0  2  0  0  0  0  0  0  0  0  0
    4.4297   -2.0840   -0.9660 C   0  0  0  0  0  0  0  0  0  0  0  0
    2.6159   -0.9680    0.4239 C   0  0  0  0  0  0  0  0  0  0  0  0
    5.6229    0.2028    0.2638 C   0  0  0  0  0  0  0  0  0  0  0  0
    5.5696    0.1196   -1.0909 C   0  0  0  0  0  0  0  0  0  0  0  0
    6.2743    1.4403    0.8574 C   0  0  0  0  0  0  0  0  0  0  0  0
    5.2563   -0.9373    2.4284 C   0  0  0  0  0  0  0  0  0  0  0  0
    0.2821   -1.5800   -0.2123 C   0  0  0  0  0  0  0  0  0  0  0  0
    7.0095    2.0325   -1.2610 C   0  0  0  0  0  0  0  0  0  0  0  0
   -0.6242   -2.5327   -0.7083 C   0  0  0  0  0  0  0  0  0  0  0  0
   -0.2054   -0.3100    0.1410 C   0  0  0  0  0  0  0  0  0  0  0  0
   -5.7610    0.7521    0.2160 C   0  0  1  0  0  0  0  0  0  0  0  0
   -2.4453   -0.9597   -0.4910 C   0  0  0  0  0  0  0  0  0  0  0  0
   -6.5986   -0.1215    1.1610 C   0  0  0  0  0  0  0  0  0  0  0  0
   -1.9778   -2.2250   -0.8466 C   0  0  0  0  0  0  0  0  0  0  0  0
   -1.5589   -0.0022    0.0025 C   0  0  0  0  0  0  0  0  0  0  0  0
   -3.8565   -0.6387   -0.6345 C   0  0  0  0  0  0  0  0  0  0  0  0
   -8.1007    0.1544    1.0791 C   0  0  0  0  0  0  0  0  0  0  0  0
   -5.8621    2.2548    0.5355 C   0  0  0  0  0  0  0  0  0  0  0  0
   -8.7447    0.0021   -0.3029 C   0  0  0  0  0  0  0  0  0  0  0  0
    3.9044   -2.5585    1.0434 H   0  0  0  0  0  0  0  0  0  0  0  0
    3.6409   -2.5854   -1.5335 H   0  0  0  0  0  0  0  0  0  0  0  0
    5.2554   -2.8006   -0.8741 H   0  0  0  0  0  0  0  0  0  0  0  0
    2.6456   -0.0626   -0.1944 H   0  0  0  0  0  0  0  0  0  0  0  0
    2.3610   -0.6613    1.4462 H   0  0  0  0  0  0  0  0  0  0  0  0
    4.9492   -0.9732   -2.7093 H   0  0  0  0  0  0  0  0  0  0  0  0
    1.8967   -2.8495   -0.2527 H   0  0  0  0  0  0  0  0  0  0  0  0
    6.1692    0.9729   -2.8488 H   0  0  0  0  0  0  0  0  0  0  0  0
    6.0676   -0.3038    2.8070 H   0  0  0  0  0  0  0  0  0  0  0  0
   -0.2761   -3.5242   -0.9894 H   0  0  0  0  0  0  0  0  0  0  0  0
    0.4511    0.4668    0.5235 H   0  0  0  0  0  0  0  0  0  0  0  0
   -6.1225    0.6077   -0.8092 H   0  0  0  0  0  0  0  0  0  0  0  0
   -6.2689    0.0246    2.1976 H   0  0  0  0  0  0  0  0  0  0  0  0
   -6.4165   -1.1800    0.9338 H   0  0  0  0  0  0  0  0  0  0  0  0
   -2.6525   -2.9866   -1.2290 H   0  0  0  0  0  0  0  0  0  0  0  0
   -1.8752    1.0040    0.2617 H   0  0  0  0  0  0  0  0  0  0  0  0
   -3.7894    0.7371    0.9475 H   0  0  0  0  0  0  0  0  0  0  0  0
   -8.6236   -0.5344    1.7540 H   0  0  0  0  0  0  0  0  0  0  0  0
   -8.3044    1.1661    1.4511 H   0  0  0  0  0  0  0  0  0  0  0  0
    7.6510    2.6273   -3.1560 H   0  0  0  0  0  0  0  0  0  0  0  0
    8.3569    3.5122   -1.8441 H   0  0  0  0  0  0  0  0  0  0  0  0
  1 20  2  0  0  0  0
  2 21  2  0  0  0  0
  3 31  2  0  0  0  0
  4 33  1  0  0  0  0
  5 33  2  0  0  0  0
  6 34  1  0  0  0  0
  7 34  2  0  0  0  0
  8 15  1  0  0  0  0
  8 18  1  0  0  0  0
  8 21  1  0  0  0  0
  9 16  1  0  0  0  0
  9 19  1  0  0  0  0
  9 40  1  0  0  0  0
 10 17  1  0  0  0  0
 10 22  1  0  0  0  0
 10 41  1  0  0  0  0
 11 19  1  0  0  0  0
 11 23  1  0  0  0  0
 11 42  1  0  0  0  0
 12 20  1  0  0  0  0
 12 23  2  0  0  0  0
 13 26  1  0  0  0  0
 13 31  1  0  0  0  0
 13 51  1  0  0  0  0
 14 23  1  0  0  0  0
 14 54  1  0  0  0  0
 14 55  1  0  0  0  0
 15 16  1  0  0  0  0
 15 17  1  0  0  0  0
 15 35  1  0  0  0  0
 16 36  1  0  0  0  0
 16 37  1  0  0  0  0
 17 38  1  0  0  0  0
 17 39  1  0  0  0  0
 18 19  2  0  0  0  0
 18 20  1  0  0  0  0
 21 43  1  0  0  0  0
 22 24  2  0  0  0  0
 22 25  1  0  0  0  0
 24 29  1  0  0  0  0
 24 44  1  0  0  0  0
 25 30  2  0  0  0  0
 25 45  1  0  0  0  0
 26 28  1  0  0  0  0
 26 33  1  0  0  0  0
 26 46  1  0  0  0  0
 27 29  2  0  0  0  0
 27 30  1  0  0  0  0
 27 31  1  0  0  0  0
 28 32  1  0  0  0  0
 28 47  1  0  0  0  0
 28 48  1  0  0  0  0
 29 49  1  0  0  0  0
 30 50  1  0  0  0  0
 32 34  1  0  0  0  0
 32 52  1  0  0  0  0
 32 53  1  0  0  0  0
M  CHG  2   4  -1   6  -1
M  END
> <PUBCHEM_COMPOUND_CID>
3904

> <PUBCHEM_CONFORMER_RMSD>
1.2

> <PUBCHEM_CONFORMER_DIVERSEORDER>
7
191
109
261
160
217
56
14
238
76
180
147
121
196
77
228
267
262
212
41
234
90
78
203
125
97
225
92
49
215
74
2
51
52
265
15
257
42
208
218
166
167
195
71
185
11
6
258
275
176
26
66
201
189
240
67
145
75
200
19
244
174
22
134
28
157
1
172
130
168
216
255
100
148
170
127
177
226
96
70
57
30
183
94
169
273
263
105
110
256
50
83
136
129
259
72
10
270
194
115
73
113
260
69
173
86
81
165
210
82
276
158
58
80
149
89
9
268
53
243
93
40
95
21
274
122
27
43
135
269
206
104
182
211
65
79
227
8
235
119
118
264
141
106
143
154
23
133
131
39
146
44
64
17
48
142
229
190
128
5
33
153
224
192
132
223
29
251
247
12
126
161
91
68
18
31
253
38
25
137
252
221
88
250
220
123
184
98
242
140
36
111
175
162
204
54
271
222
117
37
197
159
24
45
84
103
248
112
171
205
102
207
150
101
114
120
214
155
13
232
32
239
164
59
188
62
138
116
179
236
213
193
47
233
46
85
63
202
231
16
99
163
198
3
34
254
35
60
266
139
230
237
55
152
108
187
246
107
272
241
151
87
181
61
144
178
124
249
156
20
245
186
219
209
4
199

> <PUBCHEM_MMFF94_PARTIAL_CHARGES>
44
1 -0.57
10 -0.87
11 -0.55
12 -0.66
13 -0.73
14 -0.85
15 0.3
16 0.37
17 0.37
18 0.12
19 0.2
2 -0.57
20 0.77
21 0.57
22 0.1
23 0.55
24 -0.15
25 -0.15
26 0.19
27 0.09
29 -0.15
3 -0.57
30 -0.15
31 0.54
32 -0.11
33 0.91
34 0.91
4 -0.9
40 0.4
41 0.4
42 0.4
43 0.06
44 0.15
45 0.15
49 0.15
5 -0.9
50 0.15
51 0.37
54 0.4
55 0.4
6 -0.9
7 -0.9
8 -0.47
9 -0.87

> <PUBCHEM_EFFECTIVE_ROTOR_COUNT>
11.8

> <PUBCHEM_PHARMACOPHORE_FEATURES>
20
1 1 acceptor
1 10 cation
1 10 donor
1 11 donor
1 12 donor
1 13 donor
1 14 donor
1 2 acceptor
1 3 acceptor
1 4 acceptor
1 5 acceptor
1 6 acceptor
1 7 acceptor
1 9 cation
1 9 donor
3 4 5 33 anion
3 6 7 34 anion
6 11 12 18 19 20 23 rings
6 22 24 25 27 29 30 rings
6 8 9 15 16 18 19 rings

> <PUBCHEM_HEAVY_ATOM_COUNT>
34

> <PUBCHEM_ATOM_DEF_STEREO_COUNT>
0

> <PUBCHEM_ATOM_UDEF_STEREO_COUNT>
2

> <PUBCHEM_BOND_DEF_STEREO_COUNT>
0

> <PUBCHEM_BOND_UDEF_STEREO_COUNT>
0

> <PUBCHEM_ISOTOPIC_ATOM_COUNT>
0

> <PUBCHEM_COMPONENT_COUNT>
1

> <PUBCHEM_CACTVS_TAUTO_COUNT>
27

> <PUBCHEM_CONFORMER_ID>
00000F4000000007

> <PUBCHEM_MMFF94_ENERGY>
105.6162

> <PUBCHEM_FEATURE_SELFOVERLAP>
101.785

> <PUBCHEM_SHAPE_FINGERPRINT>
10 15 18413108364476670099
10209105 3 9581790258924681961
10554248 39 18263942088180419334
10816530 90 18259706675386073208
11578821 258 18273215305600481053
11719270 70 12679458703333811737
11991303 11 15864362319990811885
12342043 65 15194457506491366562
12539765 74 17677041460698128215
13782708 43 11383827173368067343
14211702 104 10231746803730793484
14251764 18 18411700980955501253
14537116 161 16950284026638177800
14849402 71 18408880716509013161
15183329 4 18410857646451567413
15188451 53 10447936048986921110
1577012 14 18408609136540691343
15840311 113 18273209820066666726
1754908 1 16200430274161634217
17686467 74 18272087168368077725
18603816 31 13686008754197655723
1979834 28 15985387790180935190
23081809 10 18336839640303414902
25269216 80 17168151075199320543
397830 11 16271929298363917306
3986486 107 16805588279792022032
4197921 191 18410011065569042121
4258327 124 18337384951068289795
4403749 210 18272928285921126627
504579 68 14923939050743317374
5109719 28 18334289881718141939
9849439 229 18408606950866918374

> <PUBCHEM_SHAPE_MULTIPOLES>
623.75
29.98
2.82
1.88
31.52
1.15
-0.92
18.58
1.63
-1.8
0.39
-3.99
0.05
-3.11

> <PUBCHEM_SHAPE_SELFOVERLAP>
1325.581

> <PUBCHEM_SHAPE_VOLUME>
341.1

> <PUBCHEM_COORDINATE_TYPE>
2
5
10

$$$$

