4890
  -OEChem-06261200243D

 40 43  0     0  0  0  0  0  0999 V2000
   -1.1272    4.6481   -0.0090 Cl  0  0  0  0  0  0  0  0  0  0  0  0
    2.4736   -2.4243    1.5812 O   0  0  0  0  0  0  0  0  0  0  0  0
    2.1025   -0.3593    0.5671 N   0  0  0  0  0  0  0  0  0  0  0  0
   -0.5235   -1.3252    1.7473 N   0  0  0  0  0  0  0  0  0  0  0  0
    3.0170   -0.4897   -1.7142 C   0  0  0  0  0  0  0  0  0  0  0  0
    2.1607   -1.5852   -2.2369 C   0  0  0  0  0  0  0  0  0  0  0  0
    3.6300   -1.5609   -2.5412 C   0  0  0  0  0  0  0  0  0  0  0  0
    3.3238   -0.4669   -0.2310 C   0  0  0  0  0  0  0  0  0  0  0  0
    1.2852    0.8112    0.3973 C   0  0  0  0  0  0  0  0  0  0  0  0
    1.8323   -1.3738    1.4929 C   0  0  0  0  0  0  0  0  0  0  0  0
   -0.1099    0.8136    0.6046 C   0  0  0  0  0  0  0  0  0  0  0  0
    0.7131   -1.1068    2.4676 C   0  0  0  0  0  0  0  0  0  0  0  0
    1.8856    2.0199   -0.0078 C   0  0  0  0  0  0  0  0  0  0  0  0
   -0.8824   -0.4327    0.8874 C   0  0  0  0  0  0  0  0  0  0  0  0
   -0.8469    2.0060    0.4849 C   0  0  0  0  0  0  0  0  0  0  0  0
    1.1435    3.1959   -0.1440 C   0  0  0  0  0  0  0  0  0  0  0  0
   -2.1406   -0.6892    0.1284 C   0  0  0  0  0  0  0  0  0  0  0  0
   -0.2201    3.1916    0.1143 C   0  0  0  0  0  0  0  0  0  0  0  0
   -2.2730   -0.2009   -1.1656 C   0  0  0  0  0  0  0  0  0  0  0  0
   -3.1663   -1.4129    0.7238 C   0  0  0  0  0  0  0  0  0  0  0  0
   -3.4497   -0.4403   -1.8755 C   0  0  0  0  0  0  0  0  0  0  0  0
   -4.3430   -1.6522    0.0140 C   0  0  0  0  0  0  0  0  0  0  0  0
   -4.4846   -1.1658   -1.2857 C   0  0  0  0  0  0  0  0  0  0  0  0
    2.9214    0.4925   -2.1571 H   0  0  0  0  0  0  0  0  0  0  0  0
    1.4744   -1.3495   -3.0412 H   0  0  0  0  0  0  0  0  0  0  0  0
    1.8045   -2.3524   -1.5607 H   0  0  0  0  0  0  0  0  0  0  0  0
    4.2532   -2.3092   -2.0676 H   0  0  0  0  0  0  0  0  0  0  0  0
    3.9297   -1.3110   -3.5518 H   0  0  0  0  0  0  0  0  0  0  0  0
    4.0141    0.3453    0.0195 H   0  0  0  0  0  0  0  0  0  0  0  0
    3.8642   -1.3802    0.0439 H   0  0  0  0  0  0  0  0  0  0  0  0
    0.7831   -1.8319    3.2860 H   0  0  0  0  0  0  0  0  0  0  0  0
    0.7924   -0.1153    2.9268 H   0  0  0  0  0  0  0  0  0  0  0  0
    2.9531    2.1040   -0.1864 H   0  0  0  0  0  0  0  0  0  0  0  0
   -1.9162    2.0148    0.6876 H   0  0  0  0  0  0  0  0  0  0  0  0
    1.6524    4.1110   -0.4363 H   0  0  0  0  0  0  0  0  0  0  0  0
   -1.4753    0.3371   -1.6692 H   0  0  0  0  0  0  0  0  0  0  0  0
   -3.0825   -1.7939    1.7378 H   0  0  0  0  0  0  0  0  0  0  0  0
   -3.5571   -0.0686   -2.8903 H   0  0  0  0  0  0  0  0  0  0  0  0
   -5.1497   -2.2157    0.4736 H   0  0  0  0  0  0  0  0  0  0  0  0
   -5.4002   -1.3535   -1.8389 H   0  0  0  0  0  0  0  0  0  0  0  0
  1 18  1  0  0  0  0
  2 10  2  0  0  0  0
  3  8  1  0  0  0  0
  3  9  1  0  0  0  0
  3 10  1  0  0  0  0
  4 12  1  0  0  0  0
  4 14  2  0  0  0  0
  5  6  1  0  0  0  0
  5  7  1  0  0  0  0
  5  8  1  0  0  0  0
  5 24  1  0  0  0  0
  6  7  1  0  0  0  0
  6 25  1  0  0  0  0
  6 26  1  0  0  0  0
  7 27  1  0  0  0  0
  7 28  1  0  0  0  0
  8 29  1  0  0  0  0
  8 30  1  0  0  0  0
  9 11  2  0  0  0  0
  9 13  1  0  0  0  0
 10 12  1  0  0  0  0
 11 14  1  0  0  0  0
 11 15  1  0  0  0  0
 12 31  1  0  0  0  0
 12 32  1  0  0  0  0
 13 16  2  0  0  0  0
 13 33  1  0  0  0  0
 14 17  1  0  0  0  0
 15 18  2  0  0  0  0
 15 34  1  0  0  0  0
 16 18  1  0  0  0  0
 16 35  1  0  0  0  0
 17 19  2  0  0  0  0
 17 20  1  0  0  0  0
 19 21  1  0  0  0  0
 19 36  1  0  0  0  0
 20 22  2  0  0  0  0
 20 37  1  0  0  0  0
 21 23  2  0  0  0  0
 21 38  1  0  0  0  0
 22 23  1  0  0  0  0
 22 39  1  0  0  0  0
 23 40  1  0  0  0  0
M  END
> <PUBCHEM_COMPOUND_CID>
4890

> <PUBCHEM_CONFORMER_RMSD>
0.6

> <PUBCHEM_CONFORMER_DIVERSEORDER>
1
8
11
9
6
12
7
2
3
10
5
4

> <PUBCHEM_MMFF94_PARTIAL_CHARGES>
36
1 -0.18
10 0.57
11 0.09
12 0.31
13 -0.15
14 0.28
15 -0.15
16 -0.15
17 0.09
18 0.18
19 -0.15
2 -0.57
20 -0.15
21 -0.15
22 -0.15
23 -0.15
24 0.1
25 0.1
26 0.1
27 0.1
28 0.1
3 -0.48
33 0.15
34 0.15
35 0.15
36 0.15
37 0.15
38 0.15
39 0.15
4 -0.7
40 0.15
5 -0.19
6 -0.2
7 -0.2
8 0.4
9 0.12

> <PUBCHEM_EFFECTIVE_ROTOR_COUNT>
4

> <PUBCHEM_PHARMACOPHORE_FEATURES>
5
1 2 acceptor
1 4 acceptor
6 17 19 20 21 22 23 rings
6 9 11 13 15 16 18 rings
7 3 4 9 10 11 12 14 rings

> <PUBCHEM_HEAVY_ATOM_COUNT>
23

> <PUBCHEM_ATOM_DEF_STEREO_COUNT>
0

> <PUBCHEM_ATOM_UDEF_STEREO_COUNT>
0

> <PUBCHEM_BOND_DEF_STEREO_COUNT>
0

> <PUBCHEM_BOND_UDEF_STEREO_COUNT>
0

> <PUBCHEM_ISOTOPIC_ATOM_COUNT>
0

> <PUBCHEM_COMPONENT_COUNT>
1

> <PUBCHEM_CACTVS_TAUTO_COUNT>
1

> <PUBCHEM_CONFORMER_ID>
0000131A00000001

> <PUBCHEM_MMFF94_ENERGY>
93.0017

> <PUBCHEM_FEATURE_SELFOVERLAP>
25.383

> <PUBCHEM_SHAPE_FINGERPRINT>
10906281 52 18125143953874738824
116883 192 18261110820074528397
12160290 23 17974848685679514913
12202030 40 17096374019486974390
12553582 1 18412257367719087139
12617007 42 18334861580482872253
12788726 201 18194681690515297969
13149001 5 17984404261931577874
13681431 1 18262516970786783569
13911987 19 17983834732678849924
14004458 79 18193568984425884577
15475509 8 18188759687124073989
15664445 248 18335702727978423814
16945 1 18271811193920387592
17357779 13 17968382345847430653
17492 54 18117821232413713660
17921350 177 18194148281267701311
1813 80 18259698999888968695
18981168 100 14259629604414047366
20600515 1 18335154076171916371
20645476 183 17195971141374517252
20645477 70 18191030002183082839
20775530 9 17097192051595712414
21285901 2 17823147889837796693
22620623 9 17972020694522602596
23419403 2 17478846586297200867
23526113 38 18055055580544501488
23557571 272 17971767815717561152
23558518 356 18270101514049804900
23598288 3 17767105867573215579
238 59 17691713098702688639
26353 1 18336815446673301413
2748010 2 17411322235734830370
2803657 2 17626689419396626376
2838139 119 14979668833106581118
3323516 105 18058172726464563547
46194498 28 18264777550008994631
5262128 65 18335977571694492989
81228 2 18118977016402639257
9925002 15 17553497164135121448

> <PUBCHEM_SHAPE_MULTIPOLES>
459.37
6.43
3.94
2.2
4.4
6.51
0.23
-5.49
3.67
-0.21
0.18
-1.26
-1.94
0.37

> <PUBCHEM_SHAPE_SELFOVERLAP>
995.77

> <PUBCHEM_SHAPE_VOLUME>
251.2

> <PUBCHEM_COORDINATE_TYPE>
2
5
10

$$$$

