12119
  -OEChem-06261206333D

 21 21  0     0  0  0  0  0  0999 V2000
    3.6152    0.3450   -0.0076 O   0  0  0  0  0  0  0  0  0  0  0  0
   -1.8808   -0.5028    0.0098 N   0  0  0  0  0  0  0  0  0  0  0  0
   -0.4869   -0.2881    0.0057 C   0  0  0  0  0  0  0  0  0  0  0  0
   -2.8313    0.5658    0.0129 C   0  0  0  0  0  0  0  0  0  0  0  0
    0.0180    1.0121    0.0045 C   0  0  0  0  0  0  0  0  0  0  0  0
    0.3867   -1.3756    0.0025 C   0  0  0  0  0  0  0  0  0  0  0  0
   -4.2529    0.0441   -0.0225 C   0  0  0  0  0  0  0  0  0  0  0  0
    1.3966    1.2248   -0.0001 C   0  0  0  0  0  0  0  0  0  0  0  0
    1.7652   -1.1627   -0.0020 C   0  0  0  0  0  0  0  0  0  0  0  0
    2.2702    0.1374   -0.0033 C   0  0  0  0  0  0  0  0  0  0  0  0
   -2.7128    1.1803    0.9132 H   0  0  0  0  0  0  0  0  0  0  0  0
   -2.6866    1.2106   -0.8621 H   0  0  0  0  0  0  0  0  0  0  0  0
   -2.2044   -1.4639    0.0162 H   0  0  0  0  0  0  0  0  0  0  0  0
   -0.6252    1.8869    0.0084 H   0  0  0  0  0  0  0  0  0  0  0  0
    0.0060   -2.3938    0.0033 H   0  0  0  0  0  0  0  0  0  0  0  0
   -4.4285   -0.5571   -0.9210 H   0  0  0  0  0  0  0  0  0  0  0  0
   -4.4611   -0.5879    0.8475 H   0  0  0  0  0  0  0  0  0  0  0  0
   -4.9667    0.8738   -0.0210 H   0  0  0  0  0  0  0  0  0  0  0  0
    1.7778    2.2426   -0.0007 H   0  0  0  0  0  0  0  0  0  0  0  0
    2.4408   -2.0138   -0.0045 H   0  0  0  0  0  0  0  0  0  0  0  0
    3.7863    1.3025   -0.0078 H   0  0  0  0  0  0  0  0  0  0  0  0
  1 10  1  0  0  0  0
  1 21  1  0  0  0  0
  2  3  1  0  0  0  0
  2  4  1  0  0  0  0
  2 13  1  0  0  0  0
  3  5  2  0  0  0  0
  3  6  1  0  0  0  0
  4  7  1  0  0  0  0
  4 11  1  0  0  0  0
  4 12  1  0  0  0  0
  5  8  1  0  0  0  0
  5 14  1  0  0  0  0
  6  9  2  0  0  0  0
  6 15  1  0  0  0  0
  7 16  1  0  0  0  0
  7 17  1  0  0  0  0
  7 18  1  0  0  0  0
  8 10  2  0  0  0  0
  8 19  1  0  0  0  0
  9 10  1  0  0  0  0
  9 20  1  0  0  0  0
M  END
> <PUBCHEM_COMPOUND_CID>
12119

> <PUBCHEM_CONFORMER_RMSD>
0.4

> <PUBCHEM_CONFORMER_DIVERSEORDER>
1
2
3

> <PUBCHEM_MMFF94_PARTIAL_CHARGES>
15
1 -0.53
10 0.08
13 0.4
14 0.15
15 0.15
19 0.15
2 -0.87
20 0.15
21 0.45
3 0.1
4 0.37
5 -0.15
6 -0.15
8 -0.15
9 -0.15

> <PUBCHEM_EFFECTIVE_ROTOR_COUNT>
2

> <PUBCHEM_PHARMACOPHORE_FEATURES>
4
1 1 donor
1 2 cation
1 2 donor
6 3 5 6 8 9 10 rings

> <PUBCHEM_HEAVY_ATOM_COUNT>
10

> <PUBCHEM_ATOM_DEF_STEREO_COUNT>
0

> <PUBCHEM_ATOM_UDEF_STEREO_COUNT>
0

> <PUBCHEM_BOND_DEF_STEREO_COUNT>
0

> <PUBCHEM_BOND_UDEF_STEREO_COUNT>
0

> <PUBCHEM_ISOTOPIC_ATOM_COUNT>
0

> <PUBCHEM_COMPONENT_COUNT>
1

> <PUBCHEM_CACTVS_TAUTO_COUNT>
2

> <PUBCHEM_CONFORMER_ID>
00002F5700000001

> <PUBCHEM_MMFF94_ENERGY>
28.7672

> <PUBCHEM_FEATURE_SELFOVERLAP>
20.297

> <PUBCHEM_SHAPE_FINGERPRINT>
10219947 1 18342454850412238685
11062470 55 15574713590707731729
11471102 20 18411142463054882165
12932764 1 16805900570926595937
13380535 76 18411699872374358699
14325111 11 18410575080747952225
16945 1 18410568487809635584
20201158 50 18342737433754320907
20645477 70 18266184001490968159
20871998 22 17973723880989507830
21040471 1 18266458702918656610
23235685 24 18411705369942585808
23402655 69 18336274530645685957
2748010 2 18050000000484315268
29004967 10 18272364287071544288
528886 8 18409735044952695522
53812653 166 18335145258693494288

> <PUBCHEM_SHAPE_MULTIPOLES>
194.94
5.74
1.28
0.6
4.53
0.11
0
-0.58
-0.04
-0.49
0
0.02
0
0

> <PUBCHEM_SHAPE_SELFOVERLAP>
395.436

> <PUBCHEM_SHAPE_VOLUME>
114.8

> <PUBCHEM_COORDINATE_TYPE>
2
5
10

$$$$

