10502
  -OEChem-06261204373D

 81 86  0     1  0  0  0  0  0999 V2000
    3.8529   -3.0021   -0.2525 O   0  0  0  0  0  0  0  0  0  0  0  0
   -2.5064   -2.2754    0.6495 O   0  0  0  0  0  0  0  0  0  0  0  0
   -3.7219   -0.1800   -0.8520 O   0  0  0  0  0  0  0  0  0  0  0  0
   -1.0378   -0.6736    3.2230 O   0  0  0  0  0  0  0  0  0  0  0  0
    7.6851    2.0917    0.5457 O   0  0  0  0  0  0  0  0  0  0  0  0
   -4.6733    1.9900   -0.7204 O   0  0  0  0  0  0  0  0  0  0  0  0
    7.0686    3.9903   -0.5994 O   0  0  0  0  0  0  0  0  0  0  0  0
   -6.8555    0.9685   -2.2872 O   0  0  0  0  0  0  0  0  0  0  0  0
   -7.9866   -0.4442   -0.1729 O   0  0  0  0  0  0  0  0  0  0  0  0
   -6.9792    1.0915    2.0119 O   0  0  0  0  0  0  0  0  0  0  0  0
    3.1691   -1.7406   -0.3382 C   0  0  1  0  0  0  0  0  0  0  0  0
    1.7199   -1.9326    0.1821 C   0  0  1  0  0  0  0  0  0  0  0  0
    3.9753   -0.6505    0.4222 C   0  0  1  0  0  0  0  0  0  0  0  0
    0.9315   -0.6001    0.3216 C   0  0  1  0  0  0  0  0  0  0  0  0
   -0.5352   -0.8104    0.8580 C   0  0  2  0  0  0  0  0  0  0  0  0
   -1.2854   -1.8829    0.0004 C   0  0  1  0  0  0  0  0  0  0  0  0
    5.1991   -0.4673   -0.5214 C   0  0  1  0  0  0  0  0  0  0  0  0
    3.1403    0.6473    0.5547 C   0  0  0  0  0  0  0  0  0  0  0  0
    1.7499    0.4145    1.1458 C   0  0  0  0  0  0  0  0  0  0  0  0
    3.2790   -1.3042   -1.8124 C   0  0  0  0  0  0  0  0  0  0  0  0
    0.9452   -2.9586   -0.6618 C   0  0  0  0  0  0  0  0  0  0  0  0
   -0.4656   -3.1784   -0.1329 C   0  0  0  0  0  0  0  0  0  0  0  0
    4.6138   -0.5557   -1.9389 C   0  0  0  0  0  0  0  0  0  0  0  0
   -1.3559    0.5108    0.8705 C   0  0  0  0  0  0  0  0  0  0  0  0
   -1.6592   -1.3375   -1.4044 C   0  0  0  0  0  0  0  0  0  0  0  0
    4.4465   -1.1012    1.8189 C   0  0  0  0  0  0  0  0  0  0  0  0
   -1.6818    1.0395   -0.5259 C   0  0  0  0  0  0  0  0  0  0  0  0
   -2.4072   -0.0002   -1.3734 C   0  0  2  0  0  0  0  0  0  0  0  0
   -0.4998   -1.2793    2.3022 C   0  0  0  0  0  0  0  0  0  0  0  0
    6.0267    0.7568   -0.2960 C   0  0  0  0  0  0  0  0  0  0  0  0
    7.1861    0.7520    0.6190 C   0  0  0  0  0  0  0  0  0  0  0  0
    5.8545    1.9549   -0.8481 C   0  0  0  0  0  0  0  0  0  0  0  0
   -4.6394    0.7447   -1.4258 C   0  0  2  0  0  0  0  0  0  0  0  0
    6.9114    2.8156   -0.3146 C   0  0  0  0  0  0  0  0  0  0  0  0
   -6.0325    0.1207   -1.4845 C   0  0  1  0  0  0  0  0  0  0  0  0
   -6.6308   -0.0120   -0.0830 C   0  0  1  0  0  0  0  0  0  0  0  0
   -5.1502    1.8891    0.6252 C   0  0  2  0  0  0  0  0  0  0  0  0
   -6.5758    1.3212    0.6641 C   0  0  2  0  0  0  0  0  0  0  0  0
   -5.0753    3.2880    1.2308 C   0  0  0  0  0  0  0  0  0  0  0  0
    1.8095   -2.3746    1.1837 H   0  0  0  0  0  0  0  0  0  0  0  0
    0.8451   -0.1762   -0.6857 H   0  0  0  0  0  0  0  0  0  0  0  0
    5.8689   -1.3336   -0.4136 H   0  0  0  0  0  0  0  0  0  0  0  0
    3.0093    1.1289   -0.4222 H   0  0  0  0  0  0  0  0  0  0  0  0
    3.6656    1.3766    1.1840 H   0  0  0  0  0  0  0  0  0  0  0  0
    1.2439    1.3844    1.1719 H   0  0  0  0  0  0  0  0  0  0  0  0
    1.8423    0.0805    2.1851 H   0  0  0  0  0  0  0  0  0  0  0  0
    3.2602   -2.1585   -2.4986 H   0  0  0  0  0  0  0  0  0  0  0  0
    2.4695   -0.6279   -2.1047 H   0  0  0  0  0  0  0  0  0  0  0  0
    0.9011   -2.6415   -1.7090 H   0  0  0  0  0  0  0  0  0  0  0  0
    1.4698   -3.9217   -0.6567 H   0  0  0  0  0  0  0  0  0  0  0  0
   -0.4160   -3.6953    0.8341 H   0  0  0  0  0  0  0  0  0  0  0  0
   -0.9924   -3.8821   -0.7914 H   0  0  0  0  0  0  0  0  0  0  0  0
    4.4285    0.4080   -2.4217 H   0  0  0  0  0  0  0  0  0  0  0  0
    5.2992   -1.1043   -2.5963 H   0  0  0  0  0  0  0  0  0  0  0  0
   -2.3052    0.3623    1.4016 H   0  0  0  0  0  0  0  0  0  0  0  0
   -0.8436    1.2955    1.4379 H   0  0  0  0  0  0  0  0  0  0  0  0
   -0.7611   -1.2079   -2.0173 H   0  0  0  0  0  0  0  0  0  0  0  0
   -2.2985   -2.0736   -1.9094 H   0  0  0  0  0  0  0  0  0  0  0  0
    3.6124   -1.4684    2.4252 H   0  0  0  0  0  0  0  0  0  0  0  0
    4.9063   -0.2763    2.3721 H   0  0  0  0  0  0  0  0  0  0  0  0
    5.1853   -1.9077    1.7598 H   0  0  0  0  0  0  0  0  0  0  0  0
   -2.2665    1.9573   -0.4232 H   0  0  0  0  0  0  0  0  0  0  0  0
   -0.7535    1.3320   -1.0299 H   0  0  0  0  0  0  0  0  0  0  0  0
   -2.4509    0.3509   -2.4123 H   0  0  0  0  0  0  0  0  0  0  0  0
    3.7438   -3.3465    0.6498 H   0  0  0  0  0  0  0  0  0  0  0  0
    0.0396   -2.2168    2.5097 H   0  0  0  0  0  0  0  0  0  0  0  0
   -3.1096   -1.5145    0.6650 H   0  0  0  0  0  0  0  0  0  0  0  0
    6.9154    0.5378    1.6550 H   0  0  0  0  0  0  0  0  0  0  0  0
    7.9704    0.0637    0.2904 H   0  0  0  0  0  0  0  0  0  0  0  0
    5.1031    2.2912   -1.5405 H   0  0  0  0  0  0  0  0  0  0  0  0
   -4.3538    0.9905   -2.4559 H   0  0  0  0  0  0  0  0  0  0  0  0
   -6.0100   -0.8652   -1.9628 H   0  0  0  0  0  0  0  0  0  0  0  0
   -6.0932   -0.7794    0.4867 H   0  0  0  0  0  0  0  0  0  0  0  0
   -4.4751    1.2460    1.2021 H   0  0  0  0  0  0  0  0  0  0  0  0
   -7.2913    2.0225    0.2168 H   0  0  0  0  0  0  0  0  0  0  0  0
   -6.4839    0.9746   -3.1858 H   0  0  0  0  0  0  0  0  0  0  0  0
   -5.3455    3.2887    2.2905 H   0  0  0  0  0  0  0  0  0  0  0  0
   -5.7361    3.9805    0.6979 H   0  0  0  0  0  0  0  0  0  0  0  0
   -4.0597    3.6882    1.1360 H   0  0  0  0  0  0  0  0  0  0  0  0
   -8.4688    0.2023   -0.7164 H   0  0  0  0  0  0  0  0  0  0  0  0
   -7.1005    1.9570    2.4368 H   0  0  0  0  0  0  0  0  0  0  0  0
  1 11  1  0  0  0  0
  1 65  1  0  0  0  0
  2 16  1  0  0  0  0
  2 67  1  0  0  0  0
  3 28  1  0  0  0  0
  3 33  1  0  0  0  0
  4 29  2  0  0  0  0
  5 31  1  0  0  0  0
  5 34  1  0  0  0  0
  6 33  1  0  0  0  0
  6 37  1  0  0  0  0
  7 34  2  0  0  0  0
  8 35  1  0  0  0  0
  8 76  1  0  0  0  0
  9 36  1  0  0  0  0
  9 80  1  0  0  0  0
 10 38  1  0  0  0  0
 10 81  1  0  0  0  0
 11 12  1  0  0  0  0
 11 13  1  0  0  0  0
 11 20  1  0  0  0  0
 12 14  1  0  0  0  0
 12 21  1  0  0  0  0
 12 40  1  0  0  0  0
 13 17  1  0  0  0  0
 13 18  1  0  0  0  0
 13 26  1  0  0  0  0
 14 15  1  0  0  0  0
 14 19  1  0  0  0  0
 14 41  1  0  0  0  0
 15 16  1  0  0  0  0
 15 24  1  0  0  0  0
 15 29  1  0  0  0  0
 16 22  1  0  0  0  0
 16 25  1  0  0  0  0
 17 23  1  0  0  0  0
 17 30  1  0  0  0  0
 17 42  1  0  0  0  0
 18 19  1  0  0  0  0
 18 43  1  0  0  0  0
 18 44  1  0  0  0  0
 19 45  1  0  0  0  0
 19 46  1  0  0  0  0
 20 23  1  0  0  0  0
 20 47  1  0  0  0  0
 20 48  1  0  0  0  0
 21 22  1  0  0  0  0
 21 49  1  0  0  0  0
 21 50  1  0  0  0  0
 22 51  1  0  0  0  0
 22 52  1  0  0  0  0
 23 53  1  0  0  0  0
 23 54  1  0  0  0  0
 24 27  1  0  0  0  0
 24 55  1  0  0  0  0
 24 56  1  0  0  0  0
 25 28  1  0  0  0  0
 25 57  1  0  0  0  0
 25 58  1  0  0  0  0
 26 59  1  0  0  0  0
 26 60  1  0  0  0  0
 26 61  1  0  0  0  0
 27 28  1  0  0  0  0
 27 62  1  0  0  0  0
 27 63  1  0  0  0  0
 28 64  1  0  0  0  0
 29 66  1  0  0  0  0
 30 31  1  0  0  0  0
 30 32  2  0  0  0  0
 31 68  1  0  0  0  0
 31 69  1  0  0  0  0
 32 34  1  0  0  0  0
 32 70  1  0  0  0  0
 33 35  1  0  0  0  0
 33 71  1  0  0  0  0
 35 36  1  0  0  0  0
 35 72  1  0  0  0  0
 36 38  1  0  0  0  0
 36 73  1  0  0  0  0
 37 38  1  0  0  0  0
 37 39  1  0  0  0  0
 37 74  1  0  0  0  0
 38 75  1  0  0  0  0
 39 77  1  0  0  0  0
 39 78  1  0  0  0  0
 39 79  1  0  0  0  0
M  END
> <PUBCHEM_COMPOUND_CID>
10502

> <PUBCHEM_CONFORMER_RMSD>
1

> <PUBCHEM_CONFORMER_DIVERSEORDER>
5
44
23
31
38
13
40
34
33
9
27
28
16
26
25
42
18
6
43
29
41
24
15
22
19
37
46
39
35
4
20
3
21
36
11
45
10
32
17
30
2
8
14
1
12
7

> <PUBCHEM_MMFF94_PARTIAL_CHARGES>
32
1 -0.68
10 -0.68
11 0.28
15 0.06
16 0.28
17 0.14
2 -0.68
28 0.28
29 0.45
3 -0.56
30 -0.28
31 0.42
32 -0.14
33 0.56
34 0.71
35 0.28
36 0.28
37 0.28
38 0.28
4 -0.57
5 -0.43
6 -0.56
65 0.4
66 0.06
67 0.4
7 -0.57
70 0.15
76 0.4
8 -0.68
80 0.4
81 0.4
9 -0.68

> <PUBCHEM_EFFECTIVE_ROTOR_COUNT>
7.8

> <PUBCHEM_PHARMACOPHORE_FEATURES>
20
1 1 acceptor
1 1 donor
1 10 acceptor
1 10 donor
1 2 acceptor
1 2 donor
1 3 acceptor
1 4 acceptor
1 6 acceptor
1 7 acceptor
1 8 acceptor
1 8 donor
1 9 acceptor
1 9 donor
5 11 13 17 20 23 rings
5 5 30 31 32 34 rings
6 11 12 13 14 18 19 rings
6 12 14 15 16 21 22 rings
6 15 16 24 25 27 28 rings
6 6 33 35 36 37 38 rings

> <PUBCHEM_HEAVY_ATOM_COUNT>
39

> <PUBCHEM_ATOM_DEF_STEREO_COUNT>
11

> <PUBCHEM_ATOM_UDEF_STEREO_COUNT>
2

> <PUBCHEM_BOND_DEF_STEREO_COUNT>
0

> <PUBCHEM_BOND_UDEF_STEREO_COUNT>
0

> <PUBCHEM_ISOTOPIC_ATOM_COUNT>
0

> <PUBCHEM_COMPONENT_COUNT>
1

> <PUBCHEM_CACTVS_TAUTO_COUNT>
1

> <PUBCHEM_CONFORMER_ID>
0000290600000005

> <PUBCHEM_MMFF94_ENERGY>
129.2348

> <PUBCHEM_FEATURE_SELFOVERLAP>
101.775

> <PUBCHEM_SHAPE_FINGERPRINT>
10 15 15267339609399960660
10074138 170 16271352003293327955
10319688 67 16702020842247955657
10554248 39 17822559604083402726
10673678 19 18335414711919807902
10675989 125 18339359794601308482
10906281 52 18260263049269628194
11007060 377 18131350813267125857
11135609 12 9007059050625276918
11135609 187 18040152924669899994
11135609 201 18272091556896350112
11578080 2 18340201904523059934
11796584 16 13840281293933721558
12422481 6 13758065338158964179
12633257 1 15051735249392202934
12760667 363 8358260349613145221
131258 38 10734434651285379248
1361 87 5544908113562571380
13673619 4 7420951972039670386
13690498 29 17241905185472055159
13726171 33 18338793395709904240
13782708 43 16986872587019987067
14394314 77 18335976571385059361
14790565 3 18264484177545884609
14849402 71 18335980887779309841
14856354 85 17748833995424543911
15082195 135 17240479196410820992
15183329 4 17385731322158763677
15324884 4 16301502725868832386
15685185 35 18265329513204840436
15840311 113 18192703665224020221
16126227 98 18336546027748515085
16994733 274 18409450323323990633
18393751 57 18131631183783289075
18608769 82 18338518539114597223
19438510 23 18201721722071130880
20715895 44 18410855435418914748
21033648 29 17917143898178188966
21521721 280 18410852183522114051
23522609 53 17677318528795513937
23569914 152 16302586079665617364
25269216 80 17023191488126406685
255183 313 16272209656786456907
2838139 119 18271249421125647782
3504750 166 11240001153330783255
3918712 181 18341057397441787717
392239 28 14045451289322333373
4098825 35 17894910749786091028
4112364 45 18130803231091746904
4258327 124 18337383834434977556
4340502 62 16773797030092141298
437815 12 7709455022036454247
439807 62 7925639920880597628
474113 269 10447936040254516369
504579 68 15936403430123507208
50677037 204 18411414042101025517
513202 73 8862949368222864459
5265222 85 17458349619729106837
563151 248 14405185045485258056
563151 74 17203614796055298946
5718773 13 9511466610842062196
5776283 40 18187367567089345472
6036956 94 18197489637434782812
6081469 158 8935005862944031457
6201320 82 18192976155388422252
6669772 16 17989211476981683859
6703917 75 18040992926496295863

> <PUBCHEM_SHAPE_MULTIPOLES>
743.91
21.01
3.32
1.91
5.24
0.88
-0.56
18.51
3.1
-3.23
0.06
1.32
-0.17
-0.92

> <PUBCHEM_SHAPE_SELFOVERLAP>
1609.143

> <PUBCHEM_SHAPE_VOLUME>
402.6

> <PUBCHEM_COORDINATE_TYPE>
2
5
10

$$$$

