17395529
  -OEChem-06241222503D

 29 31  0     0  0  0  0  0  0999 V2000
    3.6805   -1.8477   -0.3751 S   0  0  0  0  0  0  0  0  0  0  0  0
    1.2612    2.0509    0.4060 O   0  0  0  0  0  0  0  0  0  0  0  0
    1.6153   -0.2243   -0.0688 N   0  0  0  0  0  0  0  0  0  0  0  0
    3.8672    0.6741    0.1621 N   0  0  0  0  0  0  0  0  0  0  0  0
   -4.6603   -1.5639   -0.2085 C   0  0  0  0  0  0  0  0  0  0  0  0
   -3.3342   -1.9301    0.4751 C   0  0  0  0  0  0  0  0  0  0  0  0
   -4.7870   -0.0347   -0.1377 C   0  0  0  0  0  0  0  0  0  0  0  0
   -2.5234   -0.7010    0.2111 C   0  0  0  0  0  0  0  0  0  0  0  0
   -3.3482    0.3753   -0.1369 C   0  0  0  0  0  0  0  0  0  0  0  0
   -1.1520   -0.5442    0.3185 C   0  0  0  0  0  0  0  0  0  0  0  0
   -2.8184    1.6302   -0.3847 C   0  0  0  0  0  0  0  0  0  0  0  0
   -0.6075    0.7152    0.0580 C   0  0  0  0  0  0  0  0  0  0  0  0
   -1.4347    1.7946   -0.2909 C   0  0  0  0  0  0  0  0  0  0  0  0
    0.8300    0.9136    0.1576 C   0  0  0  0  0  0  0  0  0  0  0  0
    3.0117   -0.2991   -0.0593 C   0  0  0  0  0  0  0  0  0  0  0  0
    5.2499   -1.1775   -0.2048 C   0  0  0  0  0  0  0  0  0  0  0  0
    5.1498    0.1686    0.0783 C   0  0  0  0  0  0  0  0  0  0  0  0
   -5.5172   -2.0753    0.2410 H   0  0  0  0  0  0  0  0  0  0  0  0
   -4.6174   -1.8718   -1.2626 H   0  0  0  0  0  0  0  0  0  0  0  0
   -2.8923   -2.8275    0.0332 H   0  0  0  0  0  0  0  0  0  0  0  0
   -3.4693   -2.0683    1.5527 H   0  0  0  0  0  0  0  0  0  0  0  0
   -5.2690    0.2799    0.7936 H   0  0  0  0  0  0  0  0  0  0  0  0
   -5.3355    0.3604   -0.9973 H   0  0  0  0  0  0  0  0  0  0  0  0
   -0.5587   -1.3941    0.6376 H   0  0  0  0  0  0  0  0  0  0  0  0
   -3.4568    2.4677   -0.6447 H   0  0  0  0  0  0  0  0  0  0  0  0
   -1.0147    2.7769   -0.4941 H   0  0  0  0  0  0  0  0  0  0  0  0
    1.1749   -1.1067   -0.3101 H   0  0  0  0  0  0  0  0  0  0  0  0
    6.1407   -1.7790   -0.3161 H   0  0  0  0  0  0  0  0  0  0  0  0
    5.9892    0.8327    0.2340 H   0  0  0  0  0  0  0  0  0  0  0  0
  1 15  1  0  0  0  0
  1 16  1  0  0  0  0
  2 14  2  0  0  0  0
  3 14  1  0  0  0  0
  3 15  1  0  0  0  0
  3 27  1  0  0  0  0
  4 15  2  0  0  0  0
  4 17  1  0  0  0  0
  5  6  1  0  0  0  0
  5  7  1  0  0  0  0
  5 18  1  0  0  0  0
  5 19  1  0  0  0  0
  6  8  1  0  0  0  0
  6 20  1  0  0  0  0
  6 21  1  0  0  0  0
  7  9  1  0  0  0  0
  7 22  1  0  0  0  0
  7 23  1  0  0  0  0
  8  9  2  0  0  0  0
  8 10  1  0  0  0  0
  9 11  1  0  0  0  0
 10 12  2  0  0  0  0
 10 24  1  0  0  0  0
 11 13  2  0  0  0  0
 11 25  1  0  0  0  0
 12 13  1  0  0  0  0
 12 14  1  0  0  0  0
 13 26  1  0  0  0  0
 16 17  2  0  0  0  0
 16 28  1  0  0  0  0
 17 29  1  0  0  0  0
M  END
> <PUBCHEM_COMPOUND_CID>
17395529

> <PUBCHEM_CONFORMER_RMSD>
0.6

> <PUBCHEM_CONFORMER_DIVERSEORDER>
1
6
2
5
9
8
7
4
3

> <PUBCHEM_MMFF94_PARTIAL_CHARGES>
22
1 -0.08
10 -0.15
11 -0.15
12 0.09
13 -0.15
14 0.54
15 0.44
16 -0.11
17 0.08
2 -0.57
24 0.15
25 0.15
26 0.15
27 0.37
28 0.15
29 0.15
3 -0.49
4 -0.57
6 0.14
7 0.14
8 -0.14
9 -0.14

> <PUBCHEM_EFFECTIVE_ROTOR_COUNT>
3.6

> <PUBCHEM_PHARMACOPHORE_FEATURES>
5
1 2 acceptor
1 3 donor
5 1 4 15 16 17 rings
5 5 6 7 8 9 rings
6 8 9 10 11 12 13 rings

> <PUBCHEM_HEAVY_ATOM_COUNT>
17

> <PUBCHEM_ATOM_DEF_STEREO_COUNT>
0

> <PUBCHEM_ATOM_UDEF_STEREO_COUNT>
0

> <PUBCHEM_BOND_DEF_STEREO_COUNT>
0

> <PUBCHEM_BOND_UDEF_STEREO_COUNT>
0

> <PUBCHEM_ISOTOPIC_ATOM_COUNT>
0

> <PUBCHEM_COMPONENT_COUNT>
1

> <PUBCHEM_CACTVS_TAUTO_COUNT>
3

> <PUBCHEM_CONFORMER_ID>
01096F4900000001

> <PUBCHEM_MMFF94_ENERGY>
39.8621

> <PUBCHEM_FEATURE_SELFOVERLAP>
25.455

> <PUBCHEM_SHAPE_FINGERPRINT>
10616163 171 18410854395114026606
10968037 39 18342173349676293414
11046707 91 18411699876710997819
11315181 36 18259983781985131832
11458722 379 18272933829947899891
11806522 49 18412825768128223548
12032990 46 18409448080960424632
12107183 9 17621041297284995306
12236239 1 17131835382237219496
12555020 224 18411429384578125831
13167823 11 18341897428514601322
13288520 33 18410009944587573117
13544653 18 18408598154250805672
13685833 64 18340483375178533475
13740256 8 18409445856283312362
14115302 16 17774713182357051446
14251764 18 18186794769677142929
14252887 29 17385715920537746750
14386348 63 18335137604930040198
14508225 48 18270692987091828277
14790565 3 17473260358907297641
15196674 1 18410292540556217558
15352361 1 18410292505937957910
15961568 22 17631731557228048340
17804303 29 18410291402484790669
17834072 33 18343016671216620300
17834074 16 18410855464570991070
17870717 6 18340477962870744831
18186145 218 14261338151215610564
19141452 34 18333729092423595839
200 152 17967254195694111929
20261772 1 17822014185833049526
20281475 54 18410004438218239272
20374829 77 18342461434792353763
20403669 9 18408599270895323751
20645477 70 18340208488058857122
20871999 31 18201159939700240117
21250096 35 18333732437870530754
21267235 1 18411973659185256843
221490 88 18269269075977029648
2215653 11 18335710455115167565
22485316 2 18410575102133202394
2297311 6 18335691763259395644
23175994 123 17530682112943359633
23402539 116 18272656757085411551
23403322 49 18410855473213718647
23557571 272 18337105769488304860
23559900 14 18339649944700086400
239999 70 18187359935886683470
26918003 58 18040435507468461667
2871803 45 18343022207345328450
3004659 81 18201438112638351718
3268164 11 16917354769945953781
335352 9 18411700998441546781
4214541 1 18411418457479431564
4325135 7 18343579612896663780
465052 167 18188203200437401151
4921388 177 16415185746589249107
5104073 3 18334579079093485032
542803 24 5473137444988827506
559249 180 18128825324809404034
573450 72 18059305369396091192
7364860 26 18194402195355259808
76465 3 18187933811820232911
77779 3 18410854395466915316
9709674 26 18340760516222142346

> <PUBCHEM_SHAPE_MULTIPOLES>
337.87
11.53
2.02
0.67
7.57
0.02
0.01
4.72
0.73
-0.71
0.02
-0.05
0.03
0.6

> <PUBCHEM_SHAPE_SELFOVERLAP>
725.795

> <PUBCHEM_SHAPE_VOLUME>
188.1

> <PUBCHEM_COORDINATE_TYPE>
2
5
10

$$$$

