13642
  -OEChem-06241222393D

 23 23  0     0  0  0  0  0  0999 V2000
   -3.1482   -1.1457   -0.1774 O   0  0  0  0  0  0  0  0  0  0  0  0
    1.7040    0.0068    0.2892 C   0  0  0  0  0  0  0  0  0  0  0  0
    3.1887    0.0344    0.4283 C   0  0  0  0  0  0  0  0  0  0  0  0
   -1.0729   -0.0434    0.0269 C   0  0  0  0  0  0  0  0  0  0  0  0
    0.9871    1.2020    0.2326 C   0  0  0  0  0  0  0  0  0  0  0  0
    1.0325   -1.2134    0.2147 C   0  0  0  0  0  0  0  0  0  0  0  0
   -0.4014    1.1769    0.1016 C   0  0  0  0  0  0  0  0  0  0  0  0
   -0.3560   -1.2386    0.0835 C   0  0  0  0  0  0  0  0  0  0  0  0
    3.8982    0.0585   -0.9231 C   0  0  0  0  0  0  0  0  0  0  0  0
   -2.5208   -0.0700   -0.1079 C   0  0  0  0  0  0  0  0  0  0  0  0
   -3.3113    1.2325   -0.1684 C   0  0  0  0  0  0  0  0  0  0  0  0
    3.4937    0.9099    1.0150 H   0  0  0  0  0  0  0  0  0  0  0  0
    3.5272   -0.8379    1.0013 H   0  0  0  0  0  0  0  0  0  0  0  0
    1.4992    2.1591    0.2877 H   0  0  0  0  0  0  0  0  0  0  0  0
    1.5800   -2.1514    0.2558 H   0  0  0  0  0  0  0  0  0  0  0  0
   -0.9201    2.1296    0.0612 H   0  0  0  0  0  0  0  0  0  0  0  0
   -0.8563   -2.2017    0.0272 H   0  0  0  0  0  0  0  0  0  0  0  0
    3.6491   -0.8274   -1.5170 H   0  0  0  0  0  0  0  0  0  0  0  0
    4.9832    0.0781   -0.7798 H   0  0  0  0  0  0  0  0  0  0  0  0
    3.6153    0.9434   -1.5031 H   0  0  0  0  0  0  0  0  0  0  0  0
   -3.0097    1.8175   -1.0410 H   0  0  0  0  0  0  0  0  0  0  0  0
   -3.1756    1.8005    0.7556 H   0  0  0  0  0  0  0  0  0  0  0  0
   -4.3763    1.0003   -0.2689 H   0  0  0  0  0  0  0  0  0  0  0  0
  1 10  2  0  0  0  0
  2  3  1  0  0  0  0
  2  5  2  0  0  0  0
  2  6  1  0  0  0  0
  3  9  1  0  0  0  0
  3 12  1  0  0  0  0
  3 13  1  0  0  0  0
  4  7  2  0  0  0  0
  4  8  1  0  0  0  0
  4 10  1  0  0  0  0
  5  7  1  0  0  0  0
  5 14  1  0  0  0  0
  6  8  2  0  0  0  0
  6 15  1  0  0  0  0
  7 16  1  0  0  0  0
  8 17  1  0  0  0  0
  9 18  1  0  0  0  0
  9 19  1  0  0  0  0
  9 20  1  0  0  0  0
 10 11  1  0  0  0  0
 11 21  1  0  0  0  0
 11 22  1  0  0  0  0
 11 23  1  0  0  0  0
M  END
> <PUBCHEM_COMPOUND_CID>
13642

> <PUBCHEM_CONFORMER_RMSD>
0.4

> <PUBCHEM_CONFORMER_DIVERSEORDER>
1
9
2
10
6
7
4
8
5
3

> <PUBCHEM_MMFF94_PARTIAL_CHARGES>
14
1 -0.57
10 0.42
11 0.06
14 0.15
15 0.15
16 0.15
17 0.15
2 -0.14
3 0.14
4 0.09
5 -0.15
6 -0.15
7 -0.15
8 -0.15

> <PUBCHEM_EFFECTIVE_ROTOR_COUNT>
2

> <PUBCHEM_PHARMACOPHORE_FEATURES>
3
1 1 acceptor
1 9 hydrophobe
6 2 4 5 6 7 8 rings

> <PUBCHEM_HEAVY_ATOM_COUNT>
11

> <PUBCHEM_ATOM_DEF_STEREO_COUNT>
0

> <PUBCHEM_ATOM_UDEF_STEREO_COUNT>
0

> <PUBCHEM_BOND_DEF_STEREO_COUNT>
0

> <PUBCHEM_BOND_UDEF_STEREO_COUNT>
0

> <PUBCHEM_ISOTOPIC_ATOM_COUNT>
0

> <PUBCHEM_COMPONENT_COUNT>
1

> <PUBCHEM_CACTVS_TAUTO_COUNT>
2

> <PUBCHEM_CONFORMER_ID>
0000354A00000001

> <PUBCHEM_MMFF94_ENERGY>
25.4504

> <PUBCHEM_FEATURE_SELFOVERLAP>
15.223

> <PUBCHEM_SHAPE_FINGERPRINT>
10219947 1 16128658556803624086
11062470 55 16988843895008072884
11206711 2 18412833494531932733
12032990 46 18335134263387468050
12897270 3 18408326609169944024
12932764 1 17821740424395750555
14325111 11 18410858750157610584
14911166 2 18408885135502281444
14993402 34 18131631158218791678
15775835 57 18343301504509538061
16945 1 18410582776960068674
18186145 218 18334295370486106672
19026448 4 16660368069117425882
19026448 5 16774082873087086280
193761 8 17618505376530876970
20645476 183 17917699163955362070
21293036 1 18411978036147048852
23235685 24 18412832399362549768
23402539 116 18335709355814523364
23402655 69 18192449656747751469
23463225 33 18270970166721070466
23552423 10 18055917838295306738
23559900 14 18334011693113949420
2748010 2 18050572841520520560
3312278 4 18409166636359552681
5084963 1 18261112920254955145
528886 8 18410019861577401897
53812653 166 18335148608499063800

> <PUBCHEM_SHAPE_MULTIPOLES>
220.51
5.84
1.38
0.73
0.86
0.04
0.06
-0.49
1.15
-0.58
-0.04
0.38
-0.02
-0.03

> <PUBCHEM_SHAPE_SELFOVERLAP>
451.692

> <PUBCHEM_SHAPE_VOLUME>
128.2

> <PUBCHEM_COORDINATE_TYPE>
2
5
10

$$$$

