7760
  -OEChem-06261202183D

 48 47  0     1  0  0  0  0  0999 V2000
    2.7874   -0.6611    0.8359 O   0  0  0  0  0  0  0  0  0  0  0  0
   -2.7859   -0.6628   -0.8363 O   0  0  0  0  0  0  0  0  0  0  0  0
    2.1412   -0.6616   -1.3823 O   0  0  0  0  0  0  0  0  0  0  0  0
   -2.1413   -0.6599    1.3823 O   0  0  0  0  0  0  0  0  0  0  0  0
    6.0796    1.0293   -0.0479 C   0  0  0  0  0  0  0  0  0  0  0  0
   -6.0794    1.0298    0.0475 C   0  0  0  0  0  0  0  0  0  0  0  0
    4.5948    0.7989    0.2858 C   0  0  0  0  0  0  0  0  0  0  0  0
   -4.5949    0.7984   -0.2867 C   0  0  0  0  0  0  0  0  0  0  0  0
    4.1631   -0.6635    0.4489 C   0  0  1  0  0  0  0  0  0  0  0  0
   -4.1636   -0.6643   -0.4477 C   0  0  1  0  0  0  0  0  0  0  0  0
    6.4925    0.3621   -1.3600 C   0  0  0  0  0  0  0  0  0  0  0  0
    6.3658    2.5320   -0.1197 C   0  0  0  0  0  0  0  0  0  0  0  0
   -6.4917    0.3648    1.3610 C   0  0  0  0  0  0  0  0  0  0  0  0
   -6.3652    2.5326    0.1170 C   0  0  0  0  0  0  0  0  0  0  0  0
    4.9609   -1.4154    1.5056 C   0  0  0  0  0  0  0  0  0  0  0  0
   -4.9623   -1.4177   -1.5028 C   0  0  0  0  0  0  0  0  0  0  0  0
    1.8898   -0.6603   -0.1877 C   0  0  0  0  0  0  0  0  0  0  0  0
   -1.8902   -0.6607    0.1876 C   0  0  0  0  0  0  0  0  0  0  0  0
    0.5333   -0.6599    0.4033 C   0  0  0  0  0  0  0  0  0  0  0  0
   -0.5339   -0.6607   -0.4038 C   0  0  0  0  0  0  0  0  0  0  0  0
    6.6998    0.6203    0.7582 H   0  0  0  0  0  0  0  0  0  0  0  0
   -6.7003    0.6195   -0.7576 H   0  0  0  0  0  0  0  0  0  0  0  0
    3.9727    1.2707   -0.4868 H   0  0  0  0  0  0  0  0  0  0  0  0
    4.3493    1.3386    1.2113 H   0  0  0  0  0  0  0  0  0  0  0  0
   -3.9722    1.2713    0.4848 H   0  0  0  0  0  0  0  0  0  0  0  0
   -4.3498    1.3365   -1.2132 H   0  0  0  0  0  0  0  0  0  0  0  0
    4.2867   -1.2052   -0.4967 H   0  0  0  0  0  0  0  0  0  0  0  0
   -4.2861   -1.2047    0.4986 H   0  0  0  0  0  0  0  0  0  0  0  0
    5.8658    0.7011   -2.1917 H   0  0  0  0  0  0  0  0  0  0  0  0
    6.4135   -0.7272   -1.2956 H   0  0  0  0  0  0  0  0  0  0  0  0
    7.5341    0.5975   -1.6045 H   0  0  0  0  0  0  0  0  0  0  0  0
    5.7856    3.0102   -0.9163 H   0  0  0  0  0  0  0  0  0  0  0  0
    6.1123    3.0222    0.8263 H   0  0  0  0  0  0  0  0  0  0  0  0
    7.4273    2.7171   -0.3161 H   0  0  0  0  0  0  0  0  0  0  0  0
   -5.8643    0.7051    2.1918 H   0  0  0  0  0  0  0  0  0  0  0  0
   -6.4128   -0.7247    1.2983 H   0  0  0  0  0  0  0  0  0  0  0  0
   -7.5330    0.6007    1.6056 H   0  0  0  0  0  0  0  0  0  0  0  0
   -5.7844    3.0120    0.9125 H   0  0  0  0  0  0  0  0  0  0  0  0
   -6.1120    3.0212   -0.8299 H   0  0  0  0  0  0  0  0  0  0  0  0
   -7.4265    2.7183    0.3137 H   0  0  0  0  0  0  0  0  0  0  0  0
    6.0093   -1.5363    1.2201 H   0  0  0  0  0  0  0  0  0  0  0  0
    4.5339   -2.4119    1.6643 H   0  0  0  0  0  0  0  0  0  0  0  0
    4.9152   -0.8985    2.4705 H   0  0  0  0  0  0  0  0  0  0  0  0
   -6.0105   -1.5380   -1.2164 H   0  0  0  0  0  0  0  0  0  0  0  0
   -4.5355   -2.4144   -1.6602 H   0  0  0  0  0  0  0  0  0  0  0  0
   -4.9171   -0.9023   -2.4685 H   0  0  0  0  0  0  0  0  0  0  0  0
    0.4451   -0.6590    1.4844 H   0  0  0  0  0  0  0  0  0  0  0  0
   -0.4456   -0.6615   -1.4850 H   0  0  0  0  0  0  0  0  0  0  0  0
  1  9  1  0  0  0  0
  1 17  1  0  0  0  0
  2 10  1  0  0  0  0
  2 18  1  0  0  0  0
  3 17  2  0  0  0  0
  4 18  2  0  0  0  0
  5  7  1  0  0  0  0
  5 11  1  0  0  0  0
  5 12  1  0  0  0  0
  5 21  1  0  0  0  0
  6  8  1  0  0  0  0
  6 13  1  0  0  0  0
  6 14  1  0  0  0  0
  6 22  1  0  0  0  0
  7  9  1  0  0  0  0
  7 23  1  0  0  0  0
  7 24  1  0  0  0  0
  8 10  1  0  0  0  0
  8 25  1  0  0  0  0
  8 26  1  0  0  0  0
  9 15  1  0  0  0  0
  9 27  1  0  0  0  0
 10 16  1  0  0  0  0
 10 28  1  0  0  0  0
 11 29  1  0  0  0  0
 11 30  1  0  0  0  0
 11 31  1  0  0  0  0
 12 32  1  0  0  0  0
 12 33  1  0  0  0  0
 12 34  1  0  0  0  0
 13 35  1  0  0  0  0
 13 36  1  0  0  0  0
 13 37  1  0  0  0  0
 14 38  1  0  0  0  0
 14 39  1  0  0  0  0
 14 40  1  0  0  0  0
 15 41  1  0  0  0  0
 15 42  1  0  0  0  0
 15 43  1  0  0  0  0
 16 44  1  0  0  0  0
 16 45  1  0  0  0  0
 16 46  1  0  0  0  0
 17 19  1  0  0  0  0
 18 20  1  0  0  0  0
 19 20  2  0  0  0  0
 19 47  1  0  0  0  0
 20 48  1  0  0  0  0
M  END
> <PUBCHEM_COMPOUND_CID>
7760

> <PUBCHEM_CONFORMER_RMSD>
1

> <PUBCHEM_CONFORMER_DIVERSEORDER>
1
26
2
12
77
61
15
74
47
35
72
59
10
22
54
33
24
3
51
71
69
73
44
60
32
76
43
5
48
28
68
6
75
52
58
11
31
45
38
18
41
66
49
19
34
36
30
79
83
81
62
20
39
7
80
64
14
25
23
50
21
42
46
53
65
82
67
55
57
8
4
63
70
37
29
40
27
16
78
56
13
17
9

> <PUBCHEM_MMFF94_PARTIAL_CHARGES>
12
1 -0.43
10 0.28
17 0.71
18 0.71
19 -0.14
2 -0.43
20 -0.14
3 -0.57
4 -0.57
47 0.15
48 0.15
9 0.28

> <PUBCHEM_EFFECTIVE_ROTOR_COUNT>
10

> <PUBCHEM_PHARMACOPHORE_FEATURES>
4
1 3 acceptor
1 4 acceptor
3 5 11 12 hydrophobe
3 6 13 14 hydrophobe

> <PUBCHEM_HEAVY_ATOM_COUNT>
20

> <PUBCHEM_ATOM_DEF_STEREO_COUNT>
0

> <PUBCHEM_ATOM_UDEF_STEREO_COUNT>
0

> <PUBCHEM_BOND_DEF_STEREO_COUNT>
0

> <PUBCHEM_BOND_UDEF_STEREO_COUNT>
1

> <PUBCHEM_ISOTOPIC_ATOM_COUNT>
0

> <PUBCHEM_COMPONENT_COUNT>
1

> <PUBCHEM_CACTVS_TAUTO_COUNT>
1

> <PUBCHEM_CONFORMER_ID>
00001E5000000001

> <PUBCHEM_MMFF94_ENERGY>
31.2987

> <PUBCHEM_FEATURE_SELFOVERLAP>
20.297

> <PUBCHEM_SHAPE_FINGERPRINT>
10087517 78 18341617040270475693
10554248 39 18116166621436868350
10638233 991 18411422765258016861
10912923 1 18341345439075217355
11646440 116 16056880243114495156
117890 112 18411139147023592384
12236239 1 18409453574439977990
12596602 18 17918273177591375825
12670543 26 15791727516291099302
13167372 99 18411984701736189504
13533116 47 17917436475313226138
13668630 136 7709460515363104545
13885169 127 9439136333873534659
13955234 65 17488477411294533194
14251757 52 18334577923979689024
14251764 18 18131349696480462519
14528608 73 18261396603229886662
14933364 13 18410853265399899520
15048467 5 18410857663446612004
15183329 4 17894632565197707169
15188451 53 11167934750119635313
15716309 27 12103845653089014673
18222031 100 7132428008602670595
190975 80 15051725357143380220
20281389 69 18271809051153998365
20526848 3 18410853261105406445
20567600 247 8070037653248522668
20621476 66 18335982051804494089
21130935 74 17561081440709289899
220451 1 18410858758668924014
2215653 11 14634866436205704036
22224240 67 17060617824617080171
23035841 295 9223225261555161949
23081809 10 18411429405240552615
23402539 116 18335150803802351791
23559900 14 15575009337908623531
29717793 49 5689593892444032346
328310 630 18341332210697219861
3663271 9 17988644112228507107
465052 167 10807932678506737184
5104073 3 17489592238300575610
531348 171 7420957448207180585
542803 24 18410298007738459438
7062679 6 18334576875780802441

> <PUBCHEM_SHAPE_MULTIPOLES>
388.11
21.32
1.89
1.28
0.01
1.34
0
11.7
0
0
0
0
-0.43
-1.69

> <PUBCHEM_SHAPE_SELFOVERLAP>
741.517

> <PUBCHEM_SHAPE_VOLUME>
238.8

> <PUBCHEM_COORDINATE_TYPE>
2
5
10

$$$$

