5818
  -OEChem-06261200542D

 21 19  0     0  0  0  0  0  0999 V2000
    2.1568    0.0000    0.0000 Cl  0  0  0  0  0  0  0  0  0  0  0  0
    2.1568    2.5000    0.0000 Cl  0  0  0  0  0  0  0  0  0  0  0  0
    1.3987    5.6200    0.0000 N   0  0  0  0  0  0  0  0  0  0  0  0
    4.8530    6.2589    0.0000 N   0  0  0  0  0  0  0  0  0  0  0  0
    0.8987    7.1588    0.0000 N   0  0  0  0  0  0  0  0  0  0  0  0
    3.1588    5.8988    0.0000 C   0  0  0  0  0  0  0  0  0  0  0  0
    2.2077    6.2078    0.0000 C   0  0  0  0  0  0  0  0  0  0  0  0
    3.9019    6.5679    0.0000 C   0  0  0  0  0  0  0  0  0  0  0  0
    1.8987    7.1588    0.0000 C   0  0  0  0  0  0  0  0  0  0  0  0
    0.5897    6.2078    0.0000 C   0  0  0  0  0  0  0  0  0  0  0  0
    2.8677    5.3513    0.0000 H   0  0  0  0  0  0  0  0  0  0  0  0
    3.6473    5.5171    0.0000 H   0  0  0  0  0  0  0  0  0  0  0  0
    4.1930    7.1153    0.0000 H   0  0  0  0  0  0  0  0  0  0  0  0
    3.4133    6.9496    0.0000 H   0  0  0  0  0  0  0  0  0  0  0  0
    1.3987    5.0000    0.0000 H   0  0  0  0  0  0  0  0  0  0  0  0
    2.2631    7.6604    0.0000 H   0  0  0  0  0  0  0  0  0  0  0  0
    0.0000    6.0162    0.0000 H   0  0  0  0  0  0  0  0  0  0  0  0
    5.3137    6.6737    0.0000 H   0  0  0  0  0  0  0  0  0  0  0  0
    4.9818    5.6524    0.0000 H   0  0  0  0  0  0  0  0  0  0  0  0
    3.1568    0.0000    0.0000 H   0  0  0  0  0  0  0  0  0  0  0  0
    3.1568    2.5000    0.0000 H   0  0  0  0  0  0  0  0  0  0  0  0
  1 20  1  0  0  0  0
  2 21  1  0  0  0  0
  3  7  1  0  0  0  0
  3 10  1  0  0  0  0
  3 15  1  0  0  0  0
  4  8  1  0  0  0  0
  4 18  1  0  0  0  0
  4 19  1  0  0  0  0
  5  9  1  0  0  0  0
  5 10  2  0  0  0  0
  6  7  1  0  0  0  0
  6  8  1  0  0  0  0
  6 11  1  0  0  0  0
  6 12  1  0  0  0  0
  7  9  2  0  0  0  0
  8 13  1  0  0  0  0
  8 14  1  0  0  0  0
  9 16  1  0  0  0  0
 10 17  1  0  0  0  0
M  END
> <PUBCHEM_COMPOUND_CID>
5818

> <PUBCHEM_COMPOUND_CANONICALIZED>
1

> <PUBCHEM_CACTVS_COMPLEXITY>
64.7

> <PUBCHEM_CACTVS_HBOND_ACCEPTOR>
2

> <PUBCHEM_CACTVS_HBOND_DONOR>
4

> <PUBCHEM_CACTVS_ROTATABLE_BOND>
2

> <PUBCHEM_CACTVS_SUBSKEYS>
AAADccBjAAAGAAAAAAAAAAAAAAAAAWAAAAAAAAAAAAAAAAABgAAAHAAQAAAACAjBFgQtkBbJkACgARRnZAAAgC2xEqABUYA4cAiAaABAyQEUAAAIEAJAQCAAAAAAAAAAAAAAAAAAAAAAAAAAAAAAAAAAAA==

> <PUBCHEM_IUPAC_OPENEYE_NAME>
2-(1H-imidazol-5-yl)ethanamine dihydrochloride

> <PUBCHEM_IUPAC_CAS_NAME>
2-(1H-imidazol-5-yl)ethanamine dihydrochloride

> <PUBCHEM_IUPAC_NAME>
2-(1H-imidazol-5-yl)ethanamine dihydrochloride

> <PUBCHEM_IUPAC_SYSTEMATIC_NAME>
2-(1H-imidazol-5-yl)ethanamine dihydrochloride

> <PUBCHEM_IUPAC_TRADITIONAL_NAME>
2-(1H-imidazol-5-yl)ethylamine dihydrochloride

> <PUBCHEM_IUPAC_INCHI>
InChI=1S/C5H9N3.2ClH/c6-2-1-5-3-7-4-8-5;;/h3-4H,1-2,6H2,(H,7,8);2*1H

> <PUBCHEM_IUPAC_INCHIKEY>
PPZMYIBUHIPZOS-UHFFFAOYSA-N

> <PUBCHEM_EXACT_MASS>
183.033003

> <PUBCHEM_MOLECULAR_FORMULA>
C5H11Cl2N3

> <PUBCHEM_MOLECULAR_WEIGHT>
184.06694

> <PUBCHEM_OPENEYE_CAN_SMILES>
C1=C(NC=N1)CCN.Cl.Cl

> <PUBCHEM_OPENEYE_ISO_SMILES>
C1=C(NC=N1)CCN.Cl.Cl

> <PUBCHEM_CACTVS_TPSA>
54.7

> <PUBCHEM_MONOISOTOPIC_WEIGHT>
183.033003

> <PUBCHEM_TOTAL_CHARGE>
0

> <PUBCHEM_HEAVY_ATOM_COUNT>
10

> <PUBCHEM_ATOM_DEF_STEREO_COUNT>
0

> <PUBCHEM_ATOM_UDEF_STEREO_COUNT>
0

> <PUBCHEM_BOND_DEF_STEREO_COUNT>
0

> <PUBCHEM_BOND_UDEF_STEREO_COUNT>
0

> <PUBCHEM_ISOTOPIC_ATOM_COUNT>
0

> <PUBCHEM_COMPONENT_COUNT>
3

> <PUBCHEM_CACTVS_TAUTO_COUNT>
2

> <PUBCHEM_COORDINATE_TYPE>
1
5
255

> <PUBCHEM_BONDANNOTATIONS>
3  10  8
3  7  8
5  10  8
5  9  8
7  9  8

$$$$

