13139
  -OEChem-06261207483D

 19 18  0     0  0  0  0  0  0999 V2000
    0.6725   -2.0600    1.3981 Cl  0  0  0  0  0  0  0  0  0  0  0  0
   -0.0014   -1.0146   -0.1743 P   0  0  0  0  0  0  0  0  0  0  0  0
    1.1884    0.0167   -0.5493 O   0  0  0  0  0  0  0  0  0  0  0  0
   -1.1779   -0.0943    0.4494 O   0  0  0  0  0  0  0  0  0  0  0  0
   -0.4261   -1.9161   -1.2974 O   0  0  0  0  0  0  0  0  0  0  0  0
    1.6924    0.9286    0.4112 C   0  0  0  0  0  0  0  0  0  0  0  0
   -1.8432    0.8194   -0.4052 C   0  0  0  0  0  0  0  0  0  0  0  0
    2.7894    1.7568   -0.2233 C   0  0  0  0  0  0  0  0  0  0  0  0
   -2.8940    1.5636    0.3908 C   0  0  0  0  0  0  0  0  0  0  0  0
    0.8856    1.5797    0.7600 H   0  0  0  0  0  0  0  0  0  0  0  0
    2.0982    0.3825    1.2670 H   0  0  0  0  0  0  0  0  0  0  0  0
   -1.1188    1.5235   -0.8256 H   0  0  0  0  0  0  0  0  0  0  0  0
   -2.3126    0.2672   -1.2253 H   0  0  0  0  0  0  0  0  0  0  0  0
    3.2022    2.4731    0.4925 H   0  0  0  0  0  0  0  0  0  0  0  0
    3.5979    1.1133   -0.5857 H   0  0  0  0  0  0  0  0  0  0  0  0
    2.4057    2.3048   -1.0903 H   0  0  0  0  0  0  0  0  0  0  0  0
   -3.4306    2.2768   -0.2411 H   0  0  0  0  0  0  0  0  0  0  0  0
   -3.6155    0.8642    0.8260 H   0  0  0  0  0  0  0  0  0  0  0  0
   -2.4339    2.1056    1.2237 H   0  0  0  0  0  0  0  0  0  0  0  0
  1  2  1  0  0  0  0
  2  3  1  0  0  0  0
  2  4  1  0  0  0  0
  2  5  2  0  0  0  0
  3  6  1  0  0  0  0
  4  7  1  0  0  0  0
  6  8  1  0  0  0  0
  6 10  1  0  0  0  0
  6 11  1  0  0  0  0
  7  9  1  0  0  0  0
  7 12  1  0  0  0  0
  7 13  1  0  0  0  0
  8 14  1  0  0  0  0
  8 15  1  0  0  0  0
  8 16  1  0  0  0  0
  9 17  1  0  0  0  0
  9 18  1  0  0  0  0
  9 19  1  0  0  0  0
M  END
> <PUBCHEM_COMPOUND_CID>
13139

> <PUBCHEM_CONFORMER_RMSD>
0.6

> <PUBCHEM_CONFORMER_DIVERSEORDER>
1
12
5
10
2
15
17
11
18
8
6
14
7
16
13
4
9
3

> <PUBCHEM_MMFF94_PARTIAL_CHARGES>
7
1 -0.32
2 1.56
3 -0.55
4 -0.55
5 -0.7
6 0.28
7 0.28

> <PUBCHEM_EFFECTIVE_ROTOR_COUNT>
4

> <PUBCHEM_PHARMACOPHORE_FEATURES>
1
1 5 acceptor

> <PUBCHEM_HEAVY_ATOM_COUNT>
9

> <PUBCHEM_ATOM_DEF_STEREO_COUNT>
0

> <PUBCHEM_ATOM_UDEF_STEREO_COUNT>
0

> <PUBCHEM_BOND_DEF_STEREO_COUNT>
0

> <PUBCHEM_BOND_UDEF_STEREO_COUNT>
0

> <PUBCHEM_ISOTOPIC_ATOM_COUNT>
0

> <PUBCHEM_COMPONENT_COUNT>
1

> <PUBCHEM_CACTVS_TAUTO_COUNT>
1

> <PUBCHEM_CONFORMER_ID>
0000335300000001

> <PUBCHEM_MMFF94_ENERGY>
5.1254

> <PUBCHEM_FEATURE_SELFOVERLAP>
5.074

> <PUBCHEM_SHAPE_FINGERPRINT>
170605 34 18337383937461432153
18342897 96 18338797788928736668
20653085 51 18261944163972835388
21040471 1 18261115144937426340
21524375 3 18410293601096849428
23211744 41 18339906165411105659
23552449 1 17756995501737014620
23552449 11 17982170333745485771
54338 74 17624432886581728188

> <PUBCHEM_SHAPE_MULTIPOLES>
173.33
3.58
2.45
1.09
1.06
0.73
-0.03
-3.48
0.4
-0.85
0.3
-0.01
0.67
-0.53

> <PUBCHEM_SHAPE_SELFOVERLAP>
288.953

> <PUBCHEM_SHAPE_VOLUME>
119.8

> <PUBCHEM_COORDINATE_TYPE>
2
5
10

$$$$

