583023
  -OEChem-06241222442D

 32 33  0     1  0  0  0  0  0999 V2000
    4.7320   -1.7500    0.0000 F   0  0  0  0  0  0  0  0  0  0  0  0
    3.7320   -3.7500    0.0000 F   0  0  0  0  0  0  0  0  0  0  0  0
    2.7320   -2.7500    0.0000 F   0  0  0  0  0  0  0  0  0  0  0  0
    4.7320   -2.7500    0.0000 F   0  0  0  0  0  0  0  0  0  0  0  0
    4.5981   -0.2500    0.0000 O   0  0  0  0  0  0  0  0  0  0  0  0
    2.7320   -1.7500    0.0000 O   0  0  0  0  0  0  0  0  0  0  0  0
    2.8660   -0.2500    0.0000 O   0  0  0  0  0  0  0  0  0  0  0  0
    2.8660    3.7500    0.0000 O   0  5  0  0  0  0  0  0  0  0  0  0
    2.0000    2.2500    0.0000 O   0  0  0  0  0  0  0  0  0  0  0  0
    6.3580    0.7153    0.0000 N   0  0  0  0  0  0  0  0  0  0  0  0
    2.8660    2.7500    0.0000 N   0  3  0  0  0  0  0  0  0  0  0  0
    5.4641    1.2500    0.0000 C   0  0  0  0  0  0  0  0  0  0  0  0
    3.7320   -1.7500    0.0000 C   0  0  3  0  0  0  0  0  0  0  0  0
    4.5981    0.7500    0.0000 C   0  0  0  0  0  0  0  0  0  0  0  0
    5.4641    2.2500    0.0000 C   0  0  0  0  0  0  0  0  0  0  0  0
    3.7320    1.2500    0.0000 C   0  0  0  0  0  0  0  0  0  0  0  0
    4.5981    2.7500    0.0000 C   0  0  0  0  0  0  0  0  0  0  0  0
    3.7320    2.2500    0.0000 C   0  0  0  0  0  0  0  0  0  0  0  0
    3.7320   -0.7500    0.0000 C   0  0  0  0  0  0  0  0  0  0  0  0
    3.7320   -2.7500    0.0000 C   0  0  0  0  0  0  0  0  0  0  0  0
    6.3580    2.7847    0.0000 C   0  0  0  0  0  0  0  0  0  0  0  0
    7.2641    2.2708    0.0000 C   0  0  0  0  0  0  0  0  0  0  0  0
    7.2641    1.2292    0.0000 C   0  0  0  0  0  0  0  0  0  0  0  0
    2.2320   -0.8840    0.0000 C   0  0  0  0  0  0  0  0  0  0  0  0
    3.1951    0.9400    0.0000 H   0  0  0  0  0  0  0  0  0  0  0  0
    4.5981    3.3700    0.0000 H   0  0  0  0  0  0  0  0  0  0  0  0
    6.3509    3.4046    0.0000 H   0  0  0  0  0  0  0  0  0  0  0  0
    7.7998    2.5829    0.0000 H   0  0  0  0  0  0  0  0  0  0  0  0
    7.7998    0.9171    0.0000 H   0  0  0  0  0  0  0  0  0  0  0  0
    2.7690   -0.5740    0.0000 H   0  0  0  0  0  0  0  0  0  0  0  0
    1.9220   -0.3470    0.0000 H   0  0  0  0  0  0  0  0  0  0  0  0
    1.6951   -1.1940    0.0000 H   0  0  0  0  0  0  0  0  0  0  0  0
  1 13  1  0  0  0  0
  2 20  1  0  0  0  0
  3 20  1  0  0  0  0
  4 20  1  0  0  0  0
  5 14  1  0  0  0  0
  5 19  1  0  0  0  0
  6 13  1  0  0  0  0
  6 24  1  0  0  0  0
  7 19  2  0  0  0  0
  8 11  1  0  0  0  0
  9 11  2  0  0  0  0
 10 12  1  0  0  0  0
 10 23  2  0  0  0  0
 11 18  1  0  0  0  0
 12 14  2  0  0  0  0
 12 15  1  0  0  0  0
 13 19  1  0  0  0  0
 13 20  1  0  0  0  0
 14 16  1  0  0  0  0
 15 17  2  0  0  0  0
 15 21  1  0  0  0  0
 16 18  2  0  0  0  0
 16 25  1  0  0  0  0
 17 18  1  0  0  0  0
 17 26  1  0  0  0  0
 21 22  2  0  0  0  0
 21 27  1  0  0  0  0
 22 23  1  0  0  0  0
 22 28  1  0  0  0  0
 23 29  1  0  0  0  0
 24 30  1  0  0  0  0
 24 31  1  0  0  0  0
 24 32  1  0  0  0  0
M  CHG  2   8  -1  11   1
M  END
> <PUBCHEM_COMPOUND_CID>
583023

> <PUBCHEM_COMPOUND_CANONICALIZED>
1

> <PUBCHEM_CACTVS_COMPLEXITY>
498

> <PUBCHEM_CACTVS_HBOND_ACCEPTOR>
10

> <PUBCHEM_CACTVS_HBOND_DONOR>
0

> <PUBCHEM_CACTVS_ROTATABLE_BOND>
4

> <PUBCHEM_CACTVS_SUBSKEYS>
AAADccBzOcAAAAAAAAAAAAAAAAAAAAAAAAA8QAAAAAAAAACx8AAAHwAEAAAADAzBnhY+zvIYVACpAzT3TwaCiCAxYiAo2CF/bJoPJuLEsZ+HOijmwBna6AeQ0LEOAACBQgACEAAAAQKEAAQgAAAAAAAAAA==

> <PUBCHEM_IUPAC_OPENEYE_NAME>
(6-nitro-8-quinolyl) 2,3,3,3-tetrafluoro-2-methoxy-propanoate

> <PUBCHEM_IUPAC_CAS_NAME>
2,3,3,3-tetrafluoro-2-methoxypropanoic acid (6-nitro-8-quinolinyl) ester

> <PUBCHEM_IUPAC_NAME>
(6-nitroquinolin-8-yl) 2,3,3,3-tetrafluoro-2-methoxypropanoate

> <PUBCHEM_IUPAC_SYSTEMATIC_NAME>
(6-nitroquinolin-8-yl) 2,3,3,3-tetrakis(fluoranyl)-2-methoxy-propanoate

> <PUBCHEM_IUPAC_TRADITIONAL_NAME>
2,3,3,3-tetrafluoro-2-methoxy-propionic acid (6-nitro-8-quinolyl) ester

> <PUBCHEM_IUPAC_INCHI>
InChI=1S/C13H8F4N2O5/c1-23-12(14,13(15,16)17)11(20)24-9-6-8(19(21)22)5-7-3-2-4-18-10(7)9/h2-6H,1H3

> <PUBCHEM_IUPAC_INCHIKEY>
LTJWGAITRHDDBQ-UHFFFAOYSA-N

> <PUBCHEM_XLOGP3_AA>
3.1

> <PUBCHEM_EXACT_MASS>
348.036934

> <PUBCHEM_MOLECULAR_FORMULA>
C13H8F4N2O5

> <PUBCHEM_MOLECULAR_WEIGHT>
348.206633

> <PUBCHEM_OPENEYE_CAN_SMILES>
COC(C(=O)OC1=C2C(=CC(=C1)[N+](=O)[O-])C=CC=N2)(C(F)(F)F)F

> <PUBCHEM_OPENEYE_ISO_SMILES>
COC(C(=O)OC1=C2C(=CC(=C1)[N+](=O)[O-])C=CC=N2)(C(F)(F)F)F

> <PUBCHEM_CACTVS_TPSA>
94.2

> <PUBCHEM_MONOISOTOPIC_WEIGHT>
348.036934

> <PUBCHEM_TOTAL_CHARGE>
0

> <PUBCHEM_HEAVY_ATOM_COUNT>
24

> <PUBCHEM_ATOM_DEF_STEREO_COUNT>
0

> <PUBCHEM_ATOM_UDEF_STEREO_COUNT>
1

> <PUBCHEM_BOND_DEF_STEREO_COUNT>
0

> <PUBCHEM_BOND_UDEF_STEREO_COUNT>
0

> <PUBCHEM_ISOTOPIC_ATOM_COUNT>
0

> <PUBCHEM_COMPONENT_COUNT>
1

> <PUBCHEM_CACTVS_TAUTO_COUNT>
1

> <PUBCHEM_COORDINATE_TYPE>
1
5
255

> <PUBCHEM_BONDANNOTATIONS>
13  1  3
10  12  8
10  23  8
12  14  8
12  15  8
14  16  8
15  17  8
15  21  8
16  18  8
17  18  8
21  22  8
22  23  8

$$$$

