14431
  -OEChem-06241222432D

 58 62  0     1  0  0  0  0  0999 V2000
   11.0954    2.1128    0.0000 O   0  0  0  0  0  0  0  0  0  0  0  0
   12.3684    0.3575    0.0000 O   0  0  0  0  0  0  0  0  0  0  0  0
    4.4455   -2.1948    0.0000 O   0  0  0  0  0  0  0  0  0  0  0  0
    9.8385    0.8575    0.0000 C   0  0  3  0  0  0  0  0  0  0  0  0
    9.8385   -0.1425    0.0000 C   0  0  3  0  0  0  0  0  0  0  0  0
    8.9725   -0.6425    0.0000 C   0  0  3  0  0  0  0  0  0  0  0  0
    8.1065   -0.1425    0.0000 C   0  0  3  0  0  0  0  0  0  0  0  0
   10.7848    1.1623    0.0000 C   0  0  2  0  0  0  0  0  0  0  0  0
    8.9725    1.3575    0.0000 C   0  0  0  0  0  0  0  0  0  0  0  0
   10.7848   -0.4472    0.0000 C   0  0  0  0  0  0  0  0  0  0  0  0
   11.3684    0.3575    0.0000 C   0  0  1  0  0  0  0  0  0  0  0  0
    8.1065    0.8575    0.0000 C   0  0  0  0  0  0  0  0  0  0  0  0
    8.9886   -1.6840    0.0000 C   0  0  0  0  0  0  0  0  0  0  0  0
    9.8385    1.8575    0.0000 C   0  0  0  0  0  0  0  0  0  0  0  0
    7.1965   -0.6493    0.0000 C   0  0  0  0  0  0  0  0  0  0  0  0
    8.0905   -2.2117    0.0000 C   0  0  0  0  0  0  0  0  0  0  0  0
    7.1885   -1.6909    0.0000 C   0  0  0  0  0  0  0  0  0  0  0  0
    6.2697   -0.0852    0.0000 C   0  0  0  0  0  0  0  0  0  0  0  0
    6.2530   -2.2406    0.0000 C   0  0  0  0  0  0  0  0  0  0  0  0
    5.3218   -0.6132    0.0000 C   0  0  0  0  0  0  0  0  0  0  0  0
    5.3134   -1.6981    0.0000 C   0  0  0  0  0  0  0  0  0  0  0  0
    3.5814   -1.6915    0.0000 C   0  0  0  0  0  0  0  0  0  0  0  0
    3.4807   -0.6965    0.0000 C   0  0  0  0  0  0  0  0  0  0  0  0
    2.6663   -2.0947    0.0000 C   0  0  0  0  0  0  0  0  0  0  0  0
    2.5033   -0.4849    0.0000 C   0  0  0  0  0  0  0  0  0  0  0  0
    2.0000   -1.3490    0.0000 C   0  0  0  0  0  0  0  0  0  0  0  0
    9.9042   -0.7590    0.0000 H   0  0  0  0  0  0  0  0  0  0  0  0
    9.5118   -0.9483    0.0000 H   0  0  0  0  0  0  0  0  0  0  0  0
    8.6434    0.1675    0.0000 H   0  0  0  0  0  0  0  0  0  0  0  0
   10.3473    1.6016    0.0000 H   0  0  0  0  0  0  0  0  0  0  0  0
    9.3710    1.8325    0.0000 H   0  0  0  0  0  0  0  0  0  0  0  0
    8.5740    1.8325    0.0000 H   0  0  0  0  0  0  0  0  0  0  0  0
   10.5337   -1.0141    0.0000 H   0  0  0  0  0  0  0  0  0  0  0  0
   11.3221   -0.7564    0.0000 H   0  0  0  0  0  0  0  0  0  0  0  0
   11.6501    0.9098    0.0000 H   0  0  0  0  0  0  0  0  0  0  0  0
    7.8944    1.4401    0.0000 H   0  0  0  0  0  0  0  0  0  0  0  0
    7.4959    0.7499    0.0000 H   0  0  0  0  0  0  0  0  0  0  0  0
    9.2066   -2.2644    0.0000 H   0  0  0  0  0  0  0  0  0  0  0  0
    9.5977   -1.5685    0.0000 H   0  0  0  0  0  0  0  0  0  0  0  0
   10.4585    1.8575    0.0000 H   0  0  0  0  0  0  0  0  0  0  0  0
    9.8385    2.4775    0.0000 H   0  0  0  0  0  0  0  0  0  0  0  0
    9.2185    1.8575    0.0000 H   0  0  0  0  0  0  0  0  0  0  0  0
    7.6932   -2.6877    0.0000 H   0  0  0  0  0  0  0  0  0  0  0  0
    8.4915   -2.6846    0.0000 H   0  0  0  0  0  0  0  0  0  0  0  0
   11.7021    2.2406    0.0000 H   0  0  0  0  0  0  0  0  0  0  0  0
   12.6784   -0.1794    0.0000 H   0  0  0  0  0  0  0  0  0  0  0  0
    6.2816    0.5347    0.0000 H   0  0  0  0  0  0  0  0  0  0  0  0
    6.2554   -2.8606    0.0000 H   0  0  0  0  0  0  0  0  0  0  0  0
    4.7884   -0.2970    0.0000 H   0  0  0  0  0  0  0  0  0  0  0  0
    4.1026   -1.3558    0.0000 H   0  0  0  0  0  0  0  0  0  0  0  0
    2.1633   -2.4572    0.0000 H   0  0  0  0  0  0  0  0  0  0  0  0
    2.9742   -2.6328    0.0000 H   0  0  0  0  0  0  0  0  0  0  0  0
    4.1007   -0.6989    0.0000 H   0  0  0  0  0  0  0  0  0  0  0  0
    3.5479   -0.0802    0.0000 H   0  0  0  0  0  0  0  0  0  0  0  0
    1.4998   -0.9826    0.0000 H   0  0  0  0  0  0  0  0  0  0  0  0
    1.5834   -1.8081    0.0000 H   0  0  0  0  0  0  0  0  0  0  0  0
    2.6972    0.1040    0.0000 H   0  0  0  0  0  0  0  0  0  0  0  0
    1.9379   -0.2305    0.0000 H   0  0  0  0  0  0  0  0  0  0  0  0
  8  1  1  1  0  0  0
  1 45  1  0  0  0  0
 11  2  1  6  0  0  0
  2 46  1  0  0  0  0
  3 21  1  0  0  0  0
  3 22  1  0  0  0  0
  4  5  1  0  0  0  0
  4  8  1  0  0  0  0
  4  9  1  0  0  0  0
  4 14  1  0  0  0  0
  5  6  1  0  0  0  0
  5 10  1  0  0  0  0
  5 27  1  0  0  0  0
  6  7  1  0  0  0  0
  6 13  1  0  0  0  0
  6 28  1  0  0  0  0
  7 12  1  0  0  0  0
  7 15  1  0  0  0  0
  7 29  1  0  0  0  0
  8 11  1  0  0  0  0
  8 30  1  0  0  0  0
  9 12  1  0  0  0  0
  9 31  1  0  0  0  0
  9 32  1  0  0  0  0
 10 11  1  0  0  0  0
 10 33  1  0  0  0  0
 10 34  1  0  0  0  0
 11 35  1  0  0  0  0
 12 36  1  0  0  0  0
 12 37  1  0  0  0  0
 13 16  1  0  0  0  0
 13 38  1  0  0  0  0
 13 39  1  0  0  0  0
 14 40  1  0  0  0  0
 14 41  1  0  0  0  0
 14 42  1  0  0  0  0
 15 17  2  0  0  0  0
 15 18  1  0  0  0  0
 16 17  1  0  0  0  0
 16 43  1  0  0  0  0
 16 44  1  0  0  0  0
 17 19  1  0  0  0  0
 18 20  2  0  0  0  0
 18 47  1  0  0  0  0
 19 21  2  0  0  0  0
 19 48  1  0  0  0  0
 20 21  1  0  0  0  0
 20 49  1  0  0  0  0
 22 23  1  0  0  0  0
 22 24  1  0  0  0  0
 22 50  1  0  0  0  0
 23 25  1  0  0  0  0
 23 53  1  0  0  0  0
 23 54  1  0  0  0  0
 24 26  1  0  0  0  0
 24 51  1  0  0  0  0
 24 52  1  0  0  0  0
 25 26  1  0  0  0  0
 25 57  1  0  0  0  0
 25 58  1  0  0  0  0
 26 55  1  0  0  0  0
 26 56  1  0  0  0  0
M  END
> <PUBCHEM_COMPOUND_CID>
14431

> <PUBCHEM_COMPOUND_CANONICALIZED>
1

> <PUBCHEM_CACTVS_COMPLEXITY>
516

> <PUBCHEM_CACTVS_HBOND_ACCEPTOR>
3

> <PUBCHEM_CACTVS_HBOND_DONOR>
2

> <PUBCHEM_CACTVS_ROTATABLE_BOND>
2

> <PUBCHEM_CACTVS_SUBSKEYS>
AAADcfB4MAAAAAAAAAAAAAAAAAAAAYMAAAAwYMAAAAAAAGDBAAAAGgAACAAADxSgmAIyBoAABgCAAiBCAAACCAAgIAAIiAAGCIgNNiKEMRqCeCCkwBEJqAeA4PAPoAABAAAQAADAAAYAACAAAIAADCAAAA==

> <PUBCHEM_IUPAC_OPENEYE_NAME>
(16R,17R)-3-(cyclopentoxy)-13-methyl-6,7,8,9,11,12,14,15,16,17-decahydrocyclopenta[a]phenanthrene-16,17-diol

> <PUBCHEM_IUPAC_CAS_NAME>
(16R,17R)-3-cyclopentyloxy-13-methyl-6,7,8,9,11,12,14,15,16,17-decahydrocyclopenta[a]phenanthrene-16,17-diol

> <PUBCHEM_IUPAC_NAME>
(16R,17R)-3-cyclopentyloxy-13-methyl-6,7,8,9,11,12,14,15,16,17-decahydrocyclopenta[a]phenanthrene-16,17-diol

> <PUBCHEM_IUPAC_SYSTEMATIC_NAME>
(16R,17R)-3-cyclopentyloxy-13-methyl-6,7,8,9,11,12,14,15,16,17-decahydrocyclopenta[a]phenanthrene-16,17-diol

> <PUBCHEM_IUPAC_TRADITIONAL_NAME>
(16R,17R)-3-(cyclopentoxy)-13-methyl-6,7,8,9,11,12,14,15,16,17-decahydrocyclopenta[a]phenanthrene-16,17-diol

> <PUBCHEM_IUPAC_INCHI>
InChI=1S/C23H32O3/c1-23-11-10-18-17-9-7-16(26-15-4-2-3-5-15)12-14(17)6-8-19(18)20(23)13-21(24)22(23)25/h7,9,12,15,18-22,24-25H,2-6,8,10-11,13H2,1H3/t18?,19?,20?,21-,22+,23?/m1/s1

> <PUBCHEM_IUPAC_INCHIKEY>
ODYKCPYPRCJXLY-XAIXDWMTSA-N

> <PUBCHEM_XLOGP3>
4

> <PUBCHEM_EXACT_MASS>
356.235145

> <PUBCHEM_MOLECULAR_FORMULA>
C23H32O3

> <PUBCHEM_MOLECULAR_WEIGHT>
356.49838

> <PUBCHEM_OPENEYE_CAN_SMILES>
CC12CCC3C(C1CC(C2O)O)CCC4=C3C=CC(=C4)OC5CCCC5

> <PUBCHEM_OPENEYE_ISO_SMILES>
CC12CCC3C(C1C[C@H]([C@@H]2O)O)CCC4=C3C=CC(=C4)OC5CCCC5

> <PUBCHEM_CACTVS_TPSA>
49.7

> <PUBCHEM_MONOISOTOPIC_WEIGHT>
356.235145

> <PUBCHEM_TOTAL_CHARGE>
0

> <PUBCHEM_HEAVY_ATOM_COUNT>
26

> <PUBCHEM_ATOM_DEF_STEREO_COUNT>
2

> <PUBCHEM_ATOM_UDEF_STEREO_COUNT>
4

> <PUBCHEM_BOND_DEF_STEREO_COUNT>
0

> <PUBCHEM_BOND_UDEF_STEREO_COUNT>
0

> <PUBCHEM_ISOTOPIC_ATOM_COUNT>
0

> <PUBCHEM_COMPONENT_COUNT>
1

> <PUBCHEM_CACTVS_TAUTO_COUNT>
1

> <PUBCHEM_COORDINATE_TYPE>
1
5
255

> <PUBCHEM_BONDANNOTATIONS>
8  1  5
15  17  8
15  18  8
17  19  8
18  20  8
19  21  8
11  2  6
20  21  8
4  14  3
5  10  3
6  13  3
7  12  3

$$$$

