7846975
  -OEChem-06241222483D

 53 55  0     1  0  0  0  0  0999 V2000
    4.2646   -1.6006    0.1371 S   0  0  0  0  0  0  0  0  0  0  0  0
   -1.8670   -0.6409    1.7950 O   0  0  0  0  0  0  0  0  0  0  0  0
    2.4648    1.8888    0.4466 O   0  0  0  0  0  0  0  0  0  0  0  0
    0.7529    0.3546    1.9473 O   0  0  0  0  0  0  0  0  0  0  0  0
    2.7084    3.3045   -1.3586 O   0  0  0  0  0  0  0  0  0  0  0  0
   -3.2307    0.6654    0.4405 N   0  0  0  0  0  0  0  0  0  0  0  0
   -1.0248    1.2599    0.7400 N   0  0  0  0  0  0  0  0  0  0  0  0
    2.3979   -0.6062   -1.3389 N   0  0  0  0  0  0  0  0  0  0  0  0
   -4.4442   -0.1072    0.5871 C   0  0  0  0  0  0  0  0  0  0  0  0
   -5.6819    0.7939    0.5226 C   0  0  0  0  0  0  0  0  0  0  0  0
   -4.5157   -1.2249   -0.4588 C   0  0  0  0  0  0  0  0  0  0  0  0
   -5.9472    1.3232   -0.8868 C   0  0  0  0  0  0  0  0  0  0  0  0
   -4.7829   -0.6923   -1.8666 C   0  0  0  0  0  0  0  0  0  0  0  0
   -6.0253    0.1920   -1.9077 C   0  0  0  0  0  0  0  0  0  0  0  0
   -2.0281    0.3336    1.0623 C   0  0  0  0  0  0  0  0  0  0  0  0
    0.2926    1.2136    1.1985 C   0  0  0  0  0  0  0  0  0  0  0  0
    1.1380    2.3514    0.6423 C   0  0  1  0  0  0  0  0  0  0  0  0
    4.5763    0.5954   -1.5330 C   0  0  0  0  0  0  0  0  0  0  0  0
    4.5372    1.8568   -0.6689 C   0  0  0  0  0  0  0  0  0  0  0  0
    1.1545    3.5504    1.5782 C   0  0  0  0  0  0  0  0  0  0  0  0
    3.6579   -0.4722   -0.9961 C   0  0  0  0  0  0  0  0  0  0  0  0
    3.1493    2.4522   -0.5999 C   0  0  0  0  0  0  0  0  0  0  0  0
    2.7168   -2.3577    0.1971 C   0  0  0  0  0  0  0  0  0  0  0  0
    1.8445   -1.6836   -0.6628 C   0  0  0  0  0  0  0  0  0  0  0  0
    2.3041   -3.4683    0.9509 C   0  0  0  0  0  0  0  0  0  0  0  0
    0.5124   -2.1391   -0.7703 C   0  0  0  0  0  0  0  0  0  0  0  0
    0.9807   -3.8986    0.8260 C   0  0  0  0  0  0  0  0  0  0  0  0
    0.0949   -3.2441   -0.0229 C   0  0  0  0  0  0  0  0  0  0  0  0
   -4.4120   -0.5729    1.5800 H   0  0  0  0  0  0  0  0  0  0  0  0
   -5.5743    1.6387    1.2135 H   0  0  0  0  0  0  0  0  0  0  0  0
   -6.5574    0.2213    0.8544 H   0  0  0  0  0  0  0  0  0  0  0  0
   -5.3231   -1.9164   -0.1856 H   0  0  0  0  0  0  0  0  0  0  0  0
   -3.5873   -1.8087   -0.4624 H   0  0  0  0  0  0  0  0  0  0  0  0
   -6.8881    1.8855   -0.8930 H   0  0  0  0  0  0  0  0  0  0  0  0
   -5.1600    2.0279   -1.1790 H   0  0  0  0  0  0  0  0  0  0  0  0
   -3.9147   -0.1209   -2.2169 H   0  0  0  0  0  0  0  0  0  0  0  0
   -4.9079   -1.5331   -2.5585 H   0  0  0  0  0  0  0  0  0  0  0  0
   -6.1477    0.6102   -2.9131 H   0  0  0  0  0  0  0  0  0  0  0  0
   -6.9137   -0.4193   -1.7062 H   0  0  0  0  0  0  0  0  0  0  0  0
   -3.2303    1.4502   -0.2033 H   0  0  0  0  0  0  0  0  0  0  0  0
   -1.2934    2.0259    0.1286 H   0  0  0  0  0  0  0  0  0  0  0  0
    0.6972    2.6506   -0.3174 H   0  0  0  0  0  0  0  0  0  0  0  0
    4.2582    0.8402   -2.5542 H   0  0  0  0  0  0  0  0  0  0  0  0
    5.6058    0.2252   -1.6025 H   0  0  0  0  0  0  0  0  0  0  0  0
    4.8935    1.6602    0.3496 H   0  0  0  0  0  0  0  0  0  0  0  0
    5.2066    2.6186   -1.0851 H   0  0  0  0  0  0  0  0  0  0  0  0
    1.7497    4.3682    1.1593 H   0  0  0  0  0  0  0  0  0  0  0  0
    0.1415    3.9171    1.7716 H   0  0  0  0  0  0  0  0  0  0  0  0
    1.6087    3.2854    2.5396 H   0  0  0  0  0  0  0  0  0  0  0  0
    2.9900   -3.9839    1.6159 H   0  0  0  0  0  0  0  0  0  0  0  0
   -0.1890   -1.6335   -1.4281 H   0  0  0  0  0  0  0  0  0  0  0  0
    0.6406   -4.7557    1.4011 H   0  0  0  0  0  0  0  0  0  0  0  0
   -0.9314   -3.5912   -0.1057 H   0  0  0  0  0  0  0  0  0  0  0  0
  1 21  1  0  0  0  0
  1 23  1  0  0  0  0
  2 15  2  0  0  0  0
  3 17  1  0  0  0  0
  3 22  1  0  0  0  0
  4 16  2  0  0  0  0
  5 22  2  0  0  0  0
  6  9  1  0  0  0  0
  6 15  1  0  0  0  0
  6 40  1  0  0  0  0
  7 15  1  0  0  0  0
  7 16  1  0  0  0  0
  7 41  1  0  0  0  0
  8 21  2  0  0  0  0
  8 24  1  0  0  0  0
  9 10  1  0  0  0  0
  9 11  1  0  0  0  0
  9 29  1  0  0  0  0
 10 12  1  0  0  0  0
 10 30  1  0  0  0  0
 10 31  1  0  0  0  0
 11 13  1  0  0  0  0
 11 32  1  0  0  0  0
 11 33  1  0  0  0  0
 12 14  1  0  0  0  0
 12 34  1  0  0  0  0
 12 35  1  0  0  0  0
 13 14  1  0  0  0  0
 13 36  1  0  0  0  0
 13 37  1  0  0  0  0
 14 38  1  0  0  0  0
 14 39  1  0  0  0  0
 16 17  1  0  0  0  0
 17 20  1  0  0  0  0
 17 42  1  0  0  0  0
 18 19  1  0  0  0  0
 18 21  1  0  0  0  0
 18 43  1  0  0  0  0
 18 44  1  0  0  0  0
 19 22  1  0  0  0  0
 19 45  1  0  0  0  0
 19 46  1  0  0  0  0
 20 47  1  0  0  0  0
 20 48  1  0  0  0  0
 20 49  1  0  0  0  0
 23 24  1  0  0  0  0
 23 25  2  0  0  0  0
 24 26  2  0  0  0  0
 25 27  1  0  0  0  0
 25 50  1  0  0  0  0
 26 28  1  0  0  0  0
 26 51  1  0  0  0  0
 27 28  2  0  0  0  0
 27 52  1  0  0  0  0
 28 53  1  0  0  0  0
M  END
> <PUBCHEM_COMPOUND_CID>
7846975

> <PUBCHEM_CONFORMER_RMSD>
1.2

> <PUBCHEM_CONFORMER_DIVERSEORDER>
1
104
100
136
90
15
2
134
168
132
159
55
85
157
171
114
138
135
86
123
164
150
147
25
89
91
158
69
75
127
49
167
14
116
163
109
80
62
60
53
4
121
52
169
17
144
26
148
101
54
156
63
149
6
98
118
119
9
130
117
84
88
142
102
146
108
59
166
56
74
107
46
35
139
128
152
161
12
11
179
113
143
22
30
92
29
76
10
71
57
162
170
13
173
160
83
131
106
110
180
23
61
115
47
103
176
124
3
70
21
58
137
112
82
94
172
140
165
155
48
34
125
73
43
65
68
129
178
78
122
27
66
44
67
39
133
120
95
36
38
16
42
111
96
174
31
72
32
93
24
105
40
126
153
175
99
64
97
141
177
77
37
50
33
18
51
20
151
7
28
145
81
154
8
19
87
5
41
45
79

> <PUBCHEM_MMFF94_PARTIAL_CHARGES>
28
1 -0.08
15 0.69
16 0.57
17 0.34
18 0.18
19 0.06
2 -0.57
21 0.2
22 0.66
23 0.04
24 0.23
25 -0.15
26 -0.15
27 -0.15
28 -0.15
3 -0.43
4 -0.57
40 0.37
41 0.37
5 -0.57
50 0.15
51 0.15
52 0.15
53 0.15
6 -0.73
7 -0.49
8 -0.57
9 0.3

> <PUBCHEM_EFFECTIVE_ROTOR_COUNT>
11.2

> <PUBCHEM_PHARMACOPHORE_FEATURES>
9
1 2 acceptor
1 4 acceptor
1 5 acceptor
1 6 donor
1 7 donor
1 8 acceptor
5 1 8 21 23 24 rings
6 23 24 25 26 27 28 rings
6 9 10 11 12 13 14 rings

> <PUBCHEM_HEAVY_ATOM_COUNT>
28

> <PUBCHEM_ATOM_DEF_STEREO_COUNT>
1

> <PUBCHEM_ATOM_UDEF_STEREO_COUNT>
0

> <PUBCHEM_BOND_DEF_STEREO_COUNT>
0

> <PUBCHEM_BOND_UDEF_STEREO_COUNT>
0

> <PUBCHEM_ISOTOPIC_ATOM_COUNT>
0

> <PUBCHEM_COMPONENT_COUNT>
1

> <PUBCHEM_CACTVS_TAUTO_COUNT>
10

> <PUBCHEM_CONFORMER_ID>
0077BC3F00000001

> <PUBCHEM_MMFF94_ENERGY>
35.96

> <PUBCHEM_FEATURE_SELFOVERLAP>
45.794

> <PUBCHEM_SHAPE_FINGERPRINT>
10675989 125 18411414016663193440
10930396 42 18266485186673584952
1100329 8 18410004404691918410
11069576 57 18264772249366139263
11186622 123 17969800579073316687
12661589 4 15649049274834743781
12769317 202 18413108359490723055
12788726 201 17604702421700450065
1361 2 18270398261634639421
14068700 675 18118967129831028778
14117953 113 17826793943409932719
14931854 50 18336248099369357092
15001296 14 17024897865589923879
15183329 4 17968097569154426093
15950262 2 15768626687335524076
17138139 8 17823141120488958477
17492 54 18335971009359011126
20028762 73 18115022030571364278
20511986 3 18041290927968786061
20775438 99 17967820405776281182
2132832 1 17910119345093693466
21792965 270 14812459146101763136
22393880 68 18261114020051627519
23559900 14 18272367576948070769
238 59 18189332385861979563
3298306 158 18338514136408686921
3882209 13 17554345982865043498
444735 86 17608112887689978191
4573279 79 16339800107248701850
463206 1 18260264114511090993
484989 97 18194947566165729258
6669772 16 17971767566325147672
7471813 234 18193840576989101114

> <PUBCHEM_SHAPE_MULTIPOLES>
541.66
12.12
4.41
1.71
19.52
0.89
-0.11
-2.48
-6.17
-5.4
1.07
0.63
-0.42
-1.07

> <PUBCHEM_SHAPE_SELFOVERLAP>
1120.929

> <PUBCHEM_SHAPE_VOLUME>
309.4

> <PUBCHEM_COORDINATE_TYPE>
2
5
10

$$$$

