4282
  -OEChem-06261200003D

 49 48  0     0  0  0  0  0  0999 V2000
   -2.4607    0.3021    0.0105 N   0  0  0  0  0  0  0  0  0  0  0  0
    2.4654    0.3280   -0.0119 N   0  0  0  0  0  0  0  0  0  0  0  0
   -7.3876    0.4244   -0.0055 N   0  0  0  0  0  0  0  0  0  0  0  0
    7.3916    0.4220    0.0066 N   0  0  0  0  0  0  0  0  0  0  0  0
   -0.0118    0.3159   -0.0014 C   0  0  0  0  0  0  0  0  0  0  0  0
   -1.2763   -0.5449    0.0131 C   0  0  0  0  0  0  0  0  0  0  0  0
    1.2746   -0.5129   -0.0164 C   0  0  0  0  0  0  0  0  0  0  0  0
   -3.6762   -0.5030    0.0154 C   0  0  0  0  0  0  0  0  0  0  0  0
    3.6747   -0.4834   -0.0158 C   0  0  0  0  0  0  0  0  0  0  0  0
   -4.9373    0.3637    0.0017 C   0  0  0  0  0  0  0  0  0  0  0  0
    4.9409    0.3759   -0.0018 C   0  0  0  0  0  0  0  0  0  0  0  0
   -6.2269   -0.4587    0.0255 C   0  0  0  0  0  0  0  0  0  0  0  0
    6.2257   -0.4542   -0.0246 C   0  0  0  0  0  0  0  0  0  0  0  0
   -8.6244   -0.3436    0.0061 C   0  0  0  0  0  0  0  0  0  0  0  0
    8.6237   -0.3534   -0.0040 C   0  0  0  0  0  0  0  0  0  0  0  0
   -9.8382    0.5696   -0.0260 C   0  0  0  0  0  0  0  0  0  0  0  0
    9.8428    0.5526    0.0283 C   0  0  0  0  0  0  0  0  0  0  0  0
   -0.0286    0.9715   -0.8823 H   0  0  0  0  0  0  0  0  0  0  0  0
   -0.0068    0.9709    0.8802 H   0  0  0  0  0  0  0  0  0  0  0  0
   -1.2753   -1.1943   -0.8705 H   0  0  0  0  0  0  0  0  0  0  0  0
   -1.2667   -1.1864    0.9026 H   0  0  0  0  0  0  0  0  0  0  0  0
    1.2797   -1.1663    0.8647 H   0  0  0  0  0  0  0  0  0  0  0  0
    1.2721   -1.1558   -0.9054 H   0  0  0  0  0  0  0  0  0  0  0  0
   -3.6962   -1.1447    0.9051 H   0  0  0  0  0  0  0  0  0  0  0  0
   -3.6916   -1.1572   -0.8649 H   0  0  0  0  0  0  0  0  0  0  0  0
    3.6922   -1.1258   -0.9050 H   0  0  0  0  0  0  0  0  0  0  0  0
    3.6865   -1.1374    0.8648 H   0  0  0  0  0  0  0  0  0  0  0  0
   -4.9208    1.0376    0.8688 H   0  0  0  0  0  0  0  0  0  0  0  0
   -4.9268    0.9999   -0.8934 H   0  0  0  0  0  0  0  0  0  0  0  0
    4.9290    1.0494   -0.8694 H   0  0  0  0  0  0  0  0  0  0  0  0
    4.9338    1.0127    0.8930 H   0  0  0  0  0  0  0  0  0  0  0  0
   -2.4507    0.9157    0.8246 H   0  0  0  0  0  0  0  0  0  0  0  0
    2.4578    0.9423   -0.8254 H   0  0  0  0  0  0  0  0  0  0  0  0
   -6.2439   -1.0796    0.9294 H   0  0  0  0  0  0  0  0  0  0  0  0
   -6.2400   -1.1273   -0.8436 H   0  0  0  0  0  0  0  0  0  0  0  0
    6.2394   -1.0756   -0.9282 H   0  0  0  0  0  0  0  0  0  0  0  0
    6.2343   -1.1225    0.8447 H   0  0  0  0  0  0  0  0  0  0  0  0
   -7.3642    1.0541    0.7961 H   0  0  0  0  0  0  0  0  0  0  0  0
    7.3724    1.0515   -0.7953 H   0  0  0  0  0  0  0  0  0  0  0  0
   -8.6650   -1.0065   -0.8661 H   0  0  0  0  0  0  0  0  0  0  0  0
   -8.6782   -0.9691    0.9051 H   0  0  0  0  0  0  0  0  0  0  0  0
    8.6600   -1.0163    0.8685 H   0  0  0  0  0  0  0  0  0  0  0  0
    8.6743   -0.9797   -0.9026 H   0  0  0  0  0  0  0  0  0  0  0  0
   -9.8613    1.2287    0.8484 H   0  0  0  0  0  0  0  0  0  0  0  0
   -9.8394    1.1937   -0.9260 H   0  0  0  0  0  0  0  0  0  0  0  0
  -10.7582   -0.0237   -0.0254 H   0  0  0  0  0  0  0  0  0  0  0  0
    9.8703    1.2111   -0.8463 H   0  0  0  0  0  0  0  0  0  0  0  0
    9.8473    1.1771    0.9279 H   0  0  0  0  0  0  0  0  0  0  0  0
   10.7594   -0.0460    0.0286 H   0  0  0  0  0  0  0  0  0  0  0  0
  1  6  1  0  0  0  0
  1  8  1  0  0  0  0
  1 32  1  0  0  0  0
  2  7  1  0  0  0  0
  2  9  1  0  0  0  0
  2 33  1  0  0  0  0
  3 12  1  0  0  0  0
  3 14  1  0  0  0  0
  3 38  1  0  0  0  0
  4 13  1  0  0  0  0
  4 15  1  0  0  0  0
  4 39  1  0  0  0  0
  5  6  1  0  0  0  0
  5  7  1  0  0  0  0
  5 18  1  0  0  0  0
  5 19  1  0  0  0  0
  6 20  1  0  0  0  0
  6 21  1  0  0  0  0
  7 22  1  0  0  0  0
  7 23  1  0  0  0  0
  8 10  1  0  0  0  0
  8 24  1  0  0  0  0
  8 25  1  0  0  0  0
  9 11  1  0  0  0  0
  9 26  1  0  0  0  0
  9 27  1  0  0  0  0
 10 12  1  0  0  0  0
 10 28  1  0  0  0  0
 10 29  1  0  0  0  0
 11 13  1  0  0  0  0
 11 30  1  0  0  0  0
 11 31  1  0  0  0  0
 12 34  1  0  0  0  0
 12 35  1  0  0  0  0
 13 36  1  0  0  0  0
 13 37  1  0  0  0  0
 14 16  1  0  0  0  0
 14 40  1  0  0  0  0
 14 41  1  0  0  0  0
 15 17  1  0  0  0  0
 15 42  1  0  0  0  0
 15 43  1  0  0  0  0
 16 44  1  0  0  0  0
 16 45  1  0  0  0  0
 16 46  1  0  0  0  0
 17 47  1  0  0  0  0
 17 48  1  0  0  0  0
 17 49  1  0  0  0  0
M  END
> <PUBCHEM_COMPOUND_CID>
4282

> <PUBCHEM_CONFORMER_RMSD>
1

> <PUBCHEM_CONFORMER_DIVERSEORDER>
1
79
41
73
42
96
84
33
4
6
72
80
85
8
91
74
56
67
11
89
34
9
55
10
2
95
31
43
14
69
83
35
64
44
88
26
17
57
16
40
90
46
82
51
87
71
38
59
37
92
61
27
25
20
81
86
39
5
54
3
70
60
65
49
24
30
22
29
63
48
94
18
15
75
32
76
66
62
23
45
93
78
53
13
47
68
36
50
7
58
77
21
19
12
52
28

> <PUBCHEM_MMFF94_PARTIAL_CHARGES>
16
1 -0.9
12 0.27
13 0.27
14 0.27
15 0.27
2 -0.9
3 -0.9
32 0.36
33 0.36
38 0.36
39 0.36
4 -0.9
6 0.27
7 0.27
8 0.27
9 0.27

> <PUBCHEM_EFFECTIVE_ROTOR_COUNT>
14

> <PUBCHEM_PHARMACOPHORE_FEATURES>
8
1 1 cation
1 1 donor
1 2 cation
1 2 donor
1 3 cation
1 3 donor
1 4 cation
1 4 donor

> <PUBCHEM_HEAVY_ATOM_COUNT>
17

> <PUBCHEM_ATOM_DEF_STEREO_COUNT>
0

> <PUBCHEM_ATOM_UDEF_STEREO_COUNT>
0

> <PUBCHEM_BOND_DEF_STEREO_COUNT>
0

> <PUBCHEM_BOND_UDEF_STEREO_COUNT>
0

> <PUBCHEM_ISOTOPIC_ATOM_COUNT>
0

> <PUBCHEM_COMPONENT_COUNT>
1

> <PUBCHEM_CACTVS_TAUTO_COUNT>
1

> <PUBCHEM_CONFORMER_ID>
000010BA00000001

> <PUBCHEM_MMFF94_ENERGY>
-18.4533

> <PUBCHEM_FEATURE_SELFOVERLAP>
40.595

> <PUBCHEM_SHAPE_FINGERPRINT>
14123256 10 18410573993741385734
14251764 46 18410856559639796067
22224240 67 16558750100613945882
232437 2 18410856563935094658
23521765 1 18335420166369783942
23581129 1 18411981364329978215
33684 2 18410856563934756866
67123 10 18410575080368111623
8209 1 18410573985151470630

> <PUBCHEM_SHAPE_MULTIPOLES>
329.93
37.46
0.79
0.6
0.13
0.02
0
-4.7
-0.03
-0.01
0
0
0.01
0.03

> <PUBCHEM_SHAPE_SELFOVERLAP>
586.602

> <PUBCHEM_SHAPE_VOLUME>
210.4

> <PUBCHEM_COORDINATE_TYPE>
2
5
10

$$$$

