10807
  -OEChem-06261204593D

 17 16  0     1  0  0  0  0  0999 V2000
   -2.9106   -0.5107    0.2540 Cl  0  0  0  0  0  0  0  0  0  0  0  0
    0.9202    0.2860    0.2061 O   0  0  0  0  0  0  0  0  0  0  0  0
   -0.3002   -1.5731   -0.3959 O   0  0  0  0  0  0  0  0  0  0  0  0
   -1.4136    0.4485    0.3938 C   0  0  1  0  0  0  0  0  0  0  0  0
    2.1304   -0.4065   -0.1164 C   0  0  0  0  0  0  0  0  0  0  0  0
   -0.2343   -0.4231    0.0172 C   0  0  0  0  0  0  0  0  0  0  0  0
   -1.4992    1.6702   -0.5047 C   0  0  0  0  0  0  0  0  0  0  0  0
    3.3072    0.5088    0.1460 C   0  0  0  0  0  0  0  0  0  0  0  0
   -1.3194    0.7348    1.4458 H   0  0  0  0  0  0  0  0  0  0  0  0
    2.2141   -1.3046    0.5057 H   0  0  0  0  0  0  0  0  0  0  0  0
    2.1149   -0.6957   -1.1732 H   0  0  0  0  0  0  0  0  0  0  0  0
   -2.3788    2.2768   -0.2638 H   0  0  0  0  0  0  0  0  0  0  0  0
   -0.6173    2.3092   -0.3874 H   0  0  0  0  0  0  0  0  0  0  0  0
   -1.5570    1.3871   -1.5619 H   0  0  0  0  0  0  0  0  0  0  0  0
    4.2512    0.0101   -0.0910 H   0  0  0  0  0  0  0  0  0  0  0  0
    3.2279    1.4204   -0.4556 H   0  0  0  0  0  0  0  0  0  0  0  0
    3.3259    0.8213    1.1953 H   0  0  0  0  0  0  0  0  0  0  0  0
  1  4  1  0  0  0  0
  2  5  1  0  0  0  0
  2  6  1  0  0  0  0
  3  6  2  0  0  0  0
  4  6  1  0  0  0  0
  4  7  1  0  0  0  0
  4  9  1  0  0  0  0
  5  8  1  0  0  0  0
  5 10  1  0  0  0  0
  5 11  1  0  0  0  0
  7 12  1  0  0  0  0
  7 13  1  0  0  0  0
  7 14  1  0  0  0  0
  8 15  1  0  0  0  0
  8 16  1  0  0  0  0
  8 17  1  0  0  0  0
M  END
> <PUBCHEM_COMPOUND_CID>
10807

> <PUBCHEM_CONFORMER_RMSD>
0.6

> <PUBCHEM_CONFORMER_DIVERSEORDER>
1
19
2
21
22
18
10
17
28
25
27
4
3
12
23
24
20
13
7
9
16
26
14
5
8
6
11
15

> <PUBCHEM_MMFF94_PARTIAL_CHARGES>
6
1 -0.29
2 -0.43
3 -0.57
4 0.35
5 0.28
6 0.66

> <PUBCHEM_EFFECTIVE_ROTOR_COUNT>
3

> <PUBCHEM_PHARMACOPHORE_FEATURES>
1
1 3 acceptor

> <PUBCHEM_HEAVY_ATOM_COUNT>
8

> <PUBCHEM_ATOM_DEF_STEREO_COUNT>
0

> <PUBCHEM_ATOM_UDEF_STEREO_COUNT>
1

> <PUBCHEM_BOND_DEF_STEREO_COUNT>
0

> <PUBCHEM_BOND_UDEF_STEREO_COUNT>
0

> <PUBCHEM_ISOTOPIC_ATOM_COUNT>
0

> <PUBCHEM_COMPONENT_COUNT>
1

> <PUBCHEM_CACTVS_TAUTO_COUNT>
1

> <PUBCHEM_CONFORMER_ID>
00002A3700000001

> <PUBCHEM_MMFF94_ENERGY>
5.6315

> <PUBCHEM_FEATURE_SELFOVERLAP>
5.074

> <PUBCHEM_SHAPE_FINGERPRINT>
10857977 72 18341896255766665385
11062470 55 14117802401187755979
12932764 1 18041006137245440178
14325111 11 18409166649096702872
14390081 3 18410858797602879760
16714656 1 18409729534593985687
21040471 1 18336830891617958946
23235685 24 17748826319400119896
23552423 10 18200026399173308226
29004967 10 15430032162548921911
5084963 1 18410006662974115664
5460574 1 9727636098504615018

> <PUBCHEM_SHAPE_MULTIPOLES>
154.77
4.54
1.36
0.68
2.38
0.21
0
0.32
0.41
-0.61
-0.25
-0.09
0.03
0.2

> <PUBCHEM_SHAPE_SELFOVERLAP>
274.457

> <PUBCHEM_SHAPE_VOLUME>
102.1

> <PUBCHEM_COORDINATE_TYPE>
2
5
10

$$$$

