17396650
  -OEChem-06241222572D

 42 43  0     0  0  0  0  0  0999 V2000
    6.3301    4.5000    0.0000 F   0  0  0  0  0  0  0  0  0  0  0  0
    6.3301    0.5000    0.0000 O   0  0  0  0  0  0  0  0  0  0  0  0
    2.8660   -2.5000    0.0000 O   0  0  0  0  0  0  0  0  0  0  0  0
    6.3301   -1.5000    0.0000 O   0  0  0  0  0  0  0  0  0  0  0  0
    4.5981    0.5000    0.0000 O   0  0  0  0  0  0  0  0  0  0  0  0
    4.5981   -1.5000    0.0000 N   0  0  0  0  0  0  0  0  0  0  0  0
    4.5981   -2.5000    0.0000 C   0  0  0  0  0  0  0  0  0  0  0  0
    5.4641   -4.0000    0.0000 C   0  0  0  0  0  0  0  0  0  0  0  0
    5.4641   -3.0000    0.0000 C   0  0  0  0  0  0  0  0  0  0  0  0
    3.7320   -3.0000    0.0000 C   0  0  0  0  0  0  0  0  0  0  0  0
    6.3301    1.5000    0.0000 C   0  0  0  0  0  0  0  0  0  0  0  0
    5.4641    2.0000    0.0000 C   0  0  0  0  0  0  0  0  0  0  0  0
    4.5981   -4.5000    0.0000 C   0  0  0  0  0  0  0  0  0  0  0  0
    3.7320   -4.0000    0.0000 C   0  0  0  0  0  0  0  0  0  0  0  0
    5.4641    0.0000    0.0000 C   0  0  0  0  0  0  0  0  0  0  0  0
    5.4641   -1.0000    0.0000 C   0  0  0  0  0  0  0  0  0  0  0  0
    6.3301   -4.5000    0.0000 C   0  0  0  0  0  0  0  0  0  0  0  0
    7.1962    2.0000    0.0000 C   0  0  0  0  0  0  0  0  0  0  0  0
    5.4641    3.0000    0.0000 C   0  0  0  0  0  0  0  0  0  0  0  0
    4.5981    1.5000    0.0000 C   0  0  0  0  0  0  0  0  0  0  0  0
    7.1962    3.0000    0.0000 C   0  0  0  0  0  0  0  0  0  0  0  0
    6.3301    3.5000    0.0000 C   0  0  0  0  0  0  0  0  0  0  0  0
    3.7320    2.0000    0.0000 C   0  0  0  0  0  0  0  0  0  0  0  0
    2.0000   -3.0000    0.0000 C   0  0  0  0  0  0  0  0  0  0  0  0
    6.0010   -2.6900    0.0000 H   0  0  0  0  0  0  0  0  0  0  0  0
    4.0611   -1.1900    0.0000 H   0  0  0  0  0  0  0  0  0  0  0  0
    4.5981   -5.1200    0.0000 H   0  0  0  0  0  0  0  0  0  0  0  0
    5.2520    0.5826    0.0000 H   0  0  0  0  0  0  0  0  0  0  0  0
    4.8535   -0.1077    0.0000 H   0  0  0  0  0  0  0  0  0  0  0  0
    3.1951   -4.3100    0.0000 H   0  0  0  0  0  0  0  0  0  0  0  0
    6.0201   -5.0369    0.0000 H   0  0  0  0  0  0  0  0  0  0  0  0
    6.8671   -4.8100    0.0000 H   0  0  0  0  0  0  0  0  0  0  0  0
    6.6401   -3.9631    0.0000 H   0  0  0  0  0  0  0  0  0  0  0  0
    7.7331    1.6900    0.0000 H   0  0  0  0  0  0  0  0  0  0  0  0
    4.9272    3.3100    0.0000 H   0  0  0  0  0  0  0  0  0  0  0  0
    7.7331    3.3100    0.0000 H   0  0  0  0  0  0  0  0  0  0  0  0
    4.0420    2.5369    0.0000 H   0  0  0  0  0  0  0  0  0  0  0  0
    3.1951    2.3100    0.0000 H   0  0  0  0  0  0  0  0  0  0  0  0
    3.4220    1.4631    0.0000 H   0  0  0  0  0  0  0  0  0  0  0  0
    1.6900   -2.4631    0.0000 H   0  0  0  0  0  0  0  0  0  0  0  0
    1.4631   -3.3100    0.0000 H   0  0  0  0  0  0  0  0  0  0  0  0
    2.3100   -3.5369    0.0000 H   0  0  0  0  0  0  0  0  0  0  0  0
  1 22  1  0  0  0  0
  2 11  1  0  0  0  0
  2 15  1  0  0  0  0
  3 10  1  0  0  0  0
  3 24  1  0  0  0  0
  4 16  2  0  0  0  0
  5 20  2  0  0  0  0
  6  7  1  0  0  0  0
  6 16  1  0  0  0  0
  6 26  1  0  0  0  0
  7  9  1  0  0  0  0
  7 10  2  0  0  0  0
  8  9  2  0  0  0  0
  8 13  1  0  0  0  0
  8 17  1  0  0  0  0
  9 25  1  0  0  0  0
 10 14  1  0  0  0  0
 11 12  2  0  0  0  0
 11 18  1  0  0  0  0
 12 19  1  0  0  0  0
 12 20  1  0  0  0  0
 13 14  2  0  0  0  0
 13 27  1  0  0  0  0
 14 30  1  0  0  0  0
 15 16  1  0  0  0  0
 15 28  1  0  0  0  0
 15 29  1  0  0  0  0
 17 31  1  0  0  0  0
 17 32  1  0  0  0  0
 17 33  1  0  0  0  0
 18 21  2  0  0  0  0
 18 34  1  0  0  0  0
 19 22  2  0  0  0  0
 19 35  1  0  0  0  0
 20 23  1  0  0  0  0
 21 22  1  0  0  0  0
 21 36  1  0  0  0  0
 23 37  1  0  0  0  0
 23 38  1  0  0  0  0
 23 39  1  0  0  0  0
 24 40  1  0  0  0  0
 24 41  1  0  0  0  0
 24 42  1  0  0  0  0
M  END
> <PUBCHEM_COMPOUND_CID>
17396650

> <PUBCHEM_COMPOUND_CANONICALIZED>
1

> <PUBCHEM_CACTVS_COMPLEXITY>
445

> <PUBCHEM_CACTVS_HBOND_ACCEPTOR>
5

> <PUBCHEM_CACTVS_HBOND_DONOR>
1

> <PUBCHEM_CACTVS_ROTATABLE_BOND>
6

> <PUBCHEM_CACTVS_SUBSKEYS>
AAADceB6OQAAAAAAAAAAAAAAAAAAAAAAAAAwYAAAAAAAAAABQAAAHwAQAAAADAyhmAoyxoLABACIAqVSUAKCCAAlIgAIiAFHbMgOJjbEtZ+HOWjk9BHY6YeYyKCOIAAAQAAIEABAAACAABAgAAAAAAAAAA==

> <PUBCHEM_IUPAC_OPENEYE_NAME>
2-(2-acetyl-4-fluoro-phenoxy)-N-(2-methoxy-5-methyl-phenyl)acetamide

> <PUBCHEM_IUPAC_CAS_NAME>
2-(2-acetyl-4-fluorophenoxy)-N-(2-methoxy-5-methylphenyl)acetamide

> <PUBCHEM_IUPAC_NAME>
2-(2-acetyl-4-fluorophenoxy)-N-(2-methoxy-5-methylphenyl)acetamide

> <PUBCHEM_IUPAC_SYSTEMATIC_NAME>
2-(2-ethanoyl-4-fluoranyl-phenoxy)-N-(2-methoxy-5-methyl-phenyl)ethanamide

> <PUBCHEM_IUPAC_TRADITIONAL_NAME>
2-(2-acetyl-4-fluoro-phenoxy)-N-(2-methoxy-5-methyl-phenyl)acetamide

> <PUBCHEM_IUPAC_INCHI>
InChI=1S/C18H18FNO4/c1-11-4-6-17(23-3)15(8-11)20-18(22)10-24-16-7-5-13(19)9-14(16)12(2)21/h4-9H,10H2,1-3H3,(H,20,22)

> <PUBCHEM_IUPAC_INCHIKEY>
BVKWGQQFQTXPQD-UHFFFAOYSA-N

> <PUBCHEM_XLOGP3_AA>
2.9

> <PUBCHEM_EXACT_MASS>
331.121986

> <PUBCHEM_MOLECULAR_FORMULA>
C18H18FNO4

> <PUBCHEM_MOLECULAR_WEIGHT>
331.338223

> <PUBCHEM_OPENEYE_CAN_SMILES>
CC1=CC(=C(C=C1)OC)NC(=O)COC2=C(C=C(C=C2)F)C(=O)C

> <PUBCHEM_OPENEYE_ISO_SMILES>
CC1=CC(=C(C=C1)OC)NC(=O)COC2=C(C=C(C=C2)F)C(=O)C

> <PUBCHEM_CACTVS_TPSA>
64.6

> <PUBCHEM_MONOISOTOPIC_WEIGHT>
331.121986

> <PUBCHEM_TOTAL_CHARGE>
0

> <PUBCHEM_HEAVY_ATOM_COUNT>
24

> <PUBCHEM_ATOM_DEF_STEREO_COUNT>
0

> <PUBCHEM_ATOM_UDEF_STEREO_COUNT>
0

> <PUBCHEM_BOND_DEF_STEREO_COUNT>
0

> <PUBCHEM_BOND_UDEF_STEREO_COUNT>
0

> <PUBCHEM_ISOTOPIC_ATOM_COUNT>
0

> <PUBCHEM_COMPONENT_COUNT>
1

> <PUBCHEM_CACTVS_TAUTO_COUNT>
6

> <PUBCHEM_COORDINATE_TYPE>
1
5
255

> <PUBCHEM_BONDANNOTATIONS>
10  14  8
11  12  8
11  18  8
12  19  8
13  14  8
18  21  8
19  22  8
21  22  8
7  10  8
7  9  8
8  13  8
8  9  8

$$$$

