17395411
  -OEChem-06241222503D

 36 37  0     0  0  0  0  0  0999 V2000
    5.3886   -0.9260   -0.1356 Br  0  0  0  0  0  0  0  0  0  0  0  0
    2.8294   -2.5963   -0.6452 O   0  0  0  0  0  0  0  0  0  0  0  0
    4.2314    1.9226    0.2459 O   0  0  0  0  0  0  0  0  0  0  0  0
   -0.7180    2.0961   -0.6830 O   0  0  0  0  0  0  0  0  0  0  0  0
   -1.4264   -0.0351   -0.0038 N   0  0  0  0  0  0  0  0  0  0  0  0
   -3.5780   -0.9794    0.3724 N   0  0  0  0  0  0  0  0  0  0  0  0
    0.9191    0.4911   -0.2897 C   0  0  0  0  0  0  0  0  0  0  0  0
    1.9352    1.4143   -0.0430 C   0  0  0  0  0  0  0  0  0  0  0  0
    1.2318   -0.8534   -0.4905 C   0  0  0  0  0  0  0  0  0  0  0  0
    2.5607   -1.2747   -0.4445 C   0  0  0  0  0  0  0  0  0  0  0  0
    3.2641    0.9929    0.0027 C   0  0  0  0  0  0  0  0  0  0  0  0
   -0.4664    0.9303   -0.3378 C   0  0  0  0  0  0  0  0  0  0  0  0
    3.5769   -0.3516   -0.1981 C   0  0  0  0  0  0  0  0  0  0  0  0
   -2.8370    0.0935    0.0148 C   0  0  0  0  0  0  0  0  0  0  0  0
   -4.9192   -0.8088    0.3749 C   0  0  0  0  0  0  0  0  0  0  0  0
   -3.3711    1.3220   -0.3386 C   0  0  0  0  0  0  0  0  0  0  0  0
   -5.5508    0.3776    0.0383 C   0  0  0  0  0  0  0  0  0  0  0  0
   -4.7549    1.4586   -0.3241 C   0  0  0  0  0  0  0  0  0  0  0  0
   -5.7422   -1.9900    0.7683 C   0  0  0  0  0  0  0  0  0  0  0  0
    2.8465   -3.4352    0.5074 C   0  0  0  0  0  0  0  0  0  0  0  0
    4.5803    2.1517    1.6091 C   0  0  0  0  0  0  0  0  0  0  0  0
    1.7043    2.4646    0.1193 H   0  0  0  0  0  0  0  0  0  0  0  0
    0.4731   -1.5956   -0.7230 H   0  0  0  0  0  0  0  0  0  0  0  0
   -1.1182   -0.9524    0.3052 H   0  0  0  0  0  0  0  0  0  0  0  0
   -2.8224    2.2021   -0.6297 H   0  0  0  0  0  0  0  0  0  0  0  0
   -6.6314    0.4719    0.0532 H   0  0  0  0  0  0  0  0  0  0  0  0
   -5.2137    2.4051   -0.5945 H   0  0  0  0  0  0  0  0  0  0  0  0
   -6.3419   -1.7581    1.6542 H   0  0  0  0  0  0  0  0  0  0  0  0
   -6.4093   -2.2787   -0.0502 H   0  0  0  0  0  0  0  0  0  0  0  0
   -5.1076   -2.8501    1.0060 H   0  0  0  0  0  0  0  0  0  0  0  0
    3.2309   -4.4153    0.2119 H   0  0  0  0  0  0  0  0  0  0  0  0
    1.8300   -3.5612    0.8934 H   0  0  0  0  0  0  0  0  0  0  0  0
    3.4923   -3.0282    1.2916 H   0  0  0  0  0  0  0  0  0  0  0  0
    5.4682    2.7894    1.6327 H   0  0  0  0  0  0  0  0  0  0  0  0
    4.8079    1.2160    2.1290 H   0  0  0  0  0  0  0  0  0  0  0  0
    3.7644    2.6709    2.1217 H   0  0  0  0  0  0  0  0  0  0  0  0
  1 13  1  0  0  0  0
  2 10  1  0  0  0  0
  2 20  1  0  0  0  0
  3 11  1  0  0  0  0
  3 21  1  0  0  0  0
  4 12  2  0  0  0  0
  5 12  1  0  0  0  0
  5 14  1  0  0  0  0
  5 24  1  0  0  0  0
  6 14  1  0  0  0  0
  6 15  2  0  0  0  0
  7  8  2  0  0  0  0
  7  9  1  0  0  0  0
  7 12  1  0  0  0  0
  8 11  1  0  0  0  0
  8 22  1  0  0  0  0
  9 10  2  0  0  0  0
  9 23  1  0  0  0  0
 10 13  1  0  0  0  0
 11 13  2  0  0  0  0
 14 16  2  0  0  0  0
 15 17  1  0  0  0  0
 15 19  1  0  0  0  0
 16 18  1  0  0  0  0
 16 25  1  0  0  0  0
 17 18  2  0  0  0  0
 17 26  1  0  0  0  0
 18 27  1  0  0  0  0
 19 28  1  0  0  0  0
 19 29  1  0  0  0  0
 19 30  1  0  0  0  0
 20 31  1  0  0  0  0
 20 32  1  0  0  0  0
 20 33  1  0  0  0  0
 21 34  1  0  0  0  0
 21 35  1  0  0  0  0
 21 36  1  0  0  0  0
M  END
> <PUBCHEM_COMPOUND_CID>
17395411

> <PUBCHEM_CONFORMER_RMSD>
0.8

> <PUBCHEM_CONFORMER_DIVERSEORDER>
1
3
2

> <PUBCHEM_MMFF94_PARTIAL_CHARGES>
27
1 -0.11
10 0.08
11 0.08
12 0.54
13 0.11
14 0.43
15 0.17
16 -0.15
17 -0.15
18 -0.15
19 0.14
2 -0.36
20 0.28
21 0.28
22 0.15
23 0.15
24 0.37
25 0.15
26 0.15
27 0.15
3 -0.36
4 -0.57
5 -0.55
6 -0.62
7 0.09
8 -0.15
9 -0.15

> <PUBCHEM_EFFECTIVE_ROTOR_COUNT>
5

> <PUBCHEM_PHARMACOPHORE_FEATURES>
8
1 1 hydrophobe
1 2 acceptor
1 3 acceptor
1 4 acceptor
1 5 donor
1 6 acceptor
6 6 14 15 16 17 18 rings
6 7 8 9 10 11 13 rings

> <PUBCHEM_HEAVY_ATOM_COUNT>
21

> <PUBCHEM_ATOM_DEF_STEREO_COUNT>
0

> <PUBCHEM_ATOM_UDEF_STEREO_COUNT>
0

> <PUBCHEM_BOND_DEF_STEREO_COUNT>
0

> <PUBCHEM_BOND_UDEF_STEREO_COUNT>
0

> <PUBCHEM_ISOTOPIC_ATOM_COUNT>
0

> <PUBCHEM_COMPONENT_COUNT>
1

> <PUBCHEM_CACTVS_TAUTO_COUNT>
3

> <PUBCHEM_CONFORMER_ID>
01096ED300000001

> <PUBCHEM_MMFF94_ENERGY>
86.7401

> <PUBCHEM_FEATURE_SELFOVERLAP>
40.594

> <PUBCHEM_SHAPE_FINGERPRINT>
10835480 77 18410582786231310301
11405975 8 18337951324295321057
11963148 33 18271811237435738594
12107183 9 17686612855061424441
12236239 1 17167866378279601565
12507560 40 18408323276702843717
12596602 18 17458899349889475859
12616971 3 17531252750872306068
12730499 353 18335415738880909632
12892183 10 18334573542912587021
13073987 5 18335697261413633577
13167823 11 18407759253086739223
13533116 47 18335138739112382913
13583140 156 18114188488950819949
13955234 65 18260270763495161330
14252887 29 18342734113554755521
14341114 176 18335414647653579641
146900 427 17749105547913892793
14790565 3 17835798604408099396
15196674 1 18411980265277266951
15375358 24 18272088271056347577
15475509 35 17560257924365302514
15961568 22 17417806189339007892
17349148 13 15339121272673398961
17844677 252 18335693962399078793
1813 80 17060335228089656373
18222031 100 17060340699551001980
200 152 18114183072427172005
20567600 70 18055640766072083650
20645477 70 18261108616576626334
21033650 10 16271079504692991325
21065198 57 18339642347393264381
21065199 12 18410573994263794085
21065201 7 17846217799846073713
21197605 99 18264764359690804399
21267235 1 18410282627502686222
221490 88 18339077206747929382
22224240 67 18190187784824118320
23557571 272 17560521810427841517
23559900 14 18342176721167631005
239999 70 18187357749379090838
26918003 58 18335984246305889945
3004659 81 18060416932374973878
33824 294 18410573985578985382
3421961 26 18339081609226765530
350125 39 18409449198527666980
3545911 37 18411979182898308469
4073 2 18272363157896124259
4214541 1 18412542141731821181
4340502 62 18260551074377134776
5104073 3 18409164454774655713
5283173 99 18129950099698981733
542803 24 15719386218563123457
621550 34 18341341032660389388
7399639 24 18341063955809382516
77779 3 18411416237403228805
9709674 26 18272643529119260011
9999458 23 18410293606346190060

> <PUBCHEM_SHAPE_MULTIPOLES>
410.54
13.78
2.81
0.87
11.12
1.53
0.2
1.82
2.54
-2.42
0.48
-0.48
-0.16
1.75

> <PUBCHEM_SHAPE_SELFOVERLAP>
858.452

> <PUBCHEM_SHAPE_VOLUME>
238.2

> <PUBCHEM_COORDINATE_TYPE>
2
5
10

$$$$

