17395859
  -OEChem-06241222523D

 49 52  0     1  0  0  0  0  0999 V2000
   -3.3935    1.9005    1.1850 O   0  0  0  0  0  0  0  0  0  0  0  0
   -1.6655   -1.3694   -1.5919 O   0  0  0  0  0  0  0  0  0  0  0  0
   -2.2703    0.5075   -0.3275 N   0  0  0  0  0  0  0  0  0  0  0  0
   -0.0284    1.3294   -0.1629 N   0  0  1  0  0  0  0  0  0  0  0  0
   -3.8191   -0.4940    1.0785 C   0  0  2  0  0  0  0  0  0  0  0  0
   -3.6175   -1.3861   -0.1521 C   0  0  1  0  0  0  0  0  0  0  0  0
   -5.2476   -0.3694    1.5921 C   0  0  0  0  0  0  0  0  0  0  0  0
   -4.7560   -1.3302   -1.1764 C   0  0  0  0  0  0  0  0  0  0  0  0
   -6.2821   -0.2401    0.4815 C   0  0  0  0  0  0  0  0  0  0  0  0
   -6.1336   -1.3656   -0.5325 C   0  0  0  0  0  0  0  0  0  0  0  0
   -3.1776    0.8144    0.6683 C   0  0  0  0  0  0  0  0  0  0  0  0
   -2.3758   -0.7936   -0.7802 C   0  0  0  0  0  0  0  0  0  0  0  0
   -1.3087    1.4502   -0.8640 C   0  0  0  0  0  0  0  0  0  0  0  0
    1.0558    1.8299   -1.0112 C   0  0  0  0  0  0  0  0  0  0  0  0
   -0.0381    2.0593    1.1082 C   0  0  0  0  0  0  0  0  0  0  0  0
    2.3855    1.2500   -0.6240 C   0  0  0  0  0  0  0  0  0  0  0  0
    2.5016   -0.1160   -0.3648 C   0  0  0  0  0  0  0  0  0  0  0  0
    3.5016    2.0754   -0.5248 C   0  0  0  0  0  0  0  0  0  0  0  0
    3.7383   -0.6741   -0.0020 C   0  0  0  0  0  0  0  0  0  0  0  0
    4.8732    0.1654    0.0991 C   0  0  0  0  0  0  0  0  0  0  0  0
    4.7381    1.5380   -0.1657 C   0  0  0  0  0  0  0  0  0  0  0  0
    3.8736   -2.0467    0.2625 C   0  0  0  0  0  0  0  0  0  0  0  0
    6.1099   -0.3926    0.4617 C   0  0  0  0  0  0  0  0  0  0  0  0
    5.1101   -2.5838    0.6218 C   0  0  0  0  0  0  0  0  0  0  0  0
    6.2261   -1.7584    0.7213 C   0  0  0  0  0  0  0  0  0  0  0  0
   -3.1917   -0.8711    1.8994 H   0  0  0  0  0  0  0  0  0  0  0  0
   -3.4282   -2.4192    0.1587 H   0  0  0  0  0  0  0  0  0  0  0  0
   -5.3422    0.4810    2.2773 H   0  0  0  0  0  0  0  0  0  0  0  0
   -5.4833   -1.2679    2.1772 H   0  0  0  0  0  0  0  0  0  0  0  0
   -4.6551   -2.1693   -1.8759 H   0  0  0  0  0  0  0  0  0  0  0  0
   -4.6779   -0.4226   -1.7903 H   0  0  0  0  0  0  0  0  0  0  0  0
   -6.1735    0.7299   -0.0184 H   0  0  0  0  0  0  0  0  0  0  0  0
   -7.2884   -0.2656    0.9149 H   0  0  0  0  0  0  0  0  0  0  0  0
   -6.2916   -2.3345   -0.0435 H   0  0  0  0  0  0  0  0  0  0  0  0
   -6.9028   -1.2673   -1.3069 H   0  0  0  0  0  0  0  0  0  0  0  0
   -1.7125    2.4685   -0.8055 H   0  0  0  0  0  0  0  0  0  0  0  0
   -1.1988    1.1973   -1.9255 H   0  0  0  0  0  0  0  0  0  0  0  0
    1.0785    2.9279   -1.0181 H   0  0  0  0  0  0  0  0  0  0  0  0
    0.9066    1.5249   -2.0563 H   0  0  0  0  0  0  0  0  0  0  0  0
   -0.7688    1.6291    1.7997 H   0  0  0  0  0  0  0  0  0  0  0  0
   -0.2692    3.1228    0.9772 H   0  0  0  0  0  0  0  0  0  0  0  0
    0.9285    1.9823    1.6186 H   0  0  0  0  0  0  0  0  0  0  0  0
    1.6314   -0.7640   -0.4556 H   0  0  0  0  0  0  0  0  0  0  0  0
    3.4256    3.1409   -0.7249 H   0  0  0  0  0  0  0  0  0  0  0  0
    5.5972    2.2019   -0.0943 H   0  0  0  0  0  0  0  0  0  0  0  0
    3.0148   -2.7111    0.1910 H   0  0  0  0  0  0  0  0  0  0  0  0
    6.9957    0.2338    0.5454 H   0  0  0  0  0  0  0  0  0  0  0  0
    5.2012   -3.6471    0.8240 H   0  0  0  0  0  0  0  0  0  0  0  0
    7.1884   -2.1773    1.0010 H   0  0  0  0  0  0  0  0  0  0  0  0
  1 11  2  0  0  0  0
  2 12  2  0  0  0  0
  3 11  1  0  0  0  0
  3 12  1  0  0  0  0
  3 13  1  0  0  0  0
  4 13  1  0  0  0  0
  4 14  1  0  0  0  0
  4 15  1  0  0  0  0
  5  6  1  0  0  0  0
  5  7  1  0  0  0  0
  5 11  1  0  0  0  0
  5 26  1  0  0  0  0
  6  8  1  0  0  0  0
  6 12  1  0  0  0  0
  6 27  1  0  0  0  0
  7  9  1  0  0  0  0
  7 28  1  0  0  0  0
  7 29  1  0  0  0  0
  8 10  1  0  0  0  0
  8 30  1  0  0  0  0
  8 31  1  0  0  0  0
  9 10  1  0  0  0  0
  9 32  1  0  0  0  0
  9 33  1  0  0  0  0
 10 34  1  0  0  0  0
 10 35  1  0  0  0  0
 13 36  1  0  0  0  0
 13 37  1  0  0  0  0
 14 16  1  0  0  0  0
 14 38  1  0  0  0  0
 14 39  1  0  0  0  0
 15 40  1  0  0  0  0
 15 41  1  0  0  0  0
 15 42  1  0  0  0  0
 16 17  2  0  0  0  0
 16 18  1  0  0  0  0
 17 19  1  0  0  0  0
 17 43  1  0  0  0  0
 18 21  2  0  0  0  0
 18 44  1  0  0  0  0
 19 20  1  0  0  0  0
 19 22  2  0  0  0  0
 20 21  1  0  0  0  0
 20 23  2  0  0  0  0
 21 45  1  0  0  0  0
 22 24  1  0  0  0  0
 22 46  1  0  0  0  0
 23 25  1  0  0  0  0
 23 47  1  0  0  0  0
 24 25  2  0  0  0  0
 24 48  1  0  0  0  0
 25 49  1  0  0  0  0
M  END
> <PUBCHEM_COMPOUND_CID>
17395859

> <PUBCHEM_CONFORMER_RMSD>
0.8

> <PUBCHEM_CONFORMER_DIVERSEORDER>
5
88
177
11
154
74
156
71
178
85
103
89
3
109
150
179
12
145
93
161
138
73
125
110
39
126
158
66
188
147
62
25
130
107
10
146
95
47
24
116
174
155
40
192
131
170
97
101
44
53
141
175
45
31
77
92
119
117
135
23
166
105
42
51
186
57
137
29
6
127
33
134
27
183
121
113
32
76
19
159
140
78
165
79
38
190
58
124
149
128
99
41
181
70
18
108
123
46
153
171
143
67
50
132
68
191
169
61
173
55
30
184
100
75
189
48
4
72
185
115
2
64
180
151
35
56
118
82
164
120
17
163
81
168
133
102
160
1
84
37
152
162
52
182
80
187
13
148
98
83
15
142
9
22
112
63
86
34
157
7
104
49
14
60
167
65
139
8
16
36
106
122
43
54
59
136
129
114
26
176
96
20
69
28
21
94
91
172
111
90
87
144

> <PUBCHEM_MMFF94_PARTIAL_CHARGES>
26
1 -0.57
11 0.57
12 0.57
13 0.57
14 0.41
15 0.27
16 -0.14
17 -0.15
18 -0.15
2 -0.57
21 -0.15
22 -0.15
23 -0.15
24 -0.15
25 -0.15
3 -0.42
4 -0.81
43 0.15
44 0.15
45 0.15
46 0.15
47 0.15
48 0.15
49 0.15
5 0.06
6 0.06

> <PUBCHEM_EFFECTIVE_ROTOR_COUNT>
5

> <PUBCHEM_PHARMACOPHORE_FEATURES>
7
1 1 acceptor
1 2 acceptor
1 4 cation
5 3 5 6 11 12 rings
6 16 17 18 19 20 21 rings
6 19 20 22 23 24 25 rings
6 5 6 7 8 9 10 rings

> <PUBCHEM_HEAVY_ATOM_COUNT>
25

> <PUBCHEM_ATOM_DEF_STEREO_COUNT>
0

> <PUBCHEM_ATOM_UDEF_STEREO_COUNT>
2

> <PUBCHEM_BOND_DEF_STEREO_COUNT>
0

> <PUBCHEM_BOND_UDEF_STEREO_COUNT>
0

> <PUBCHEM_ISOTOPIC_ATOM_COUNT>
0

> <PUBCHEM_COMPONENT_COUNT>
1

> <PUBCHEM_CACTVS_TAUTO_COUNT>
3

> <PUBCHEM_CONFORMER_ID>
0109709300000005

> <PUBCHEM_MMFF94_ENERGY>
59.1868

> <PUBCHEM_FEATURE_SELFOVERLAP>
35.72

> <PUBCHEM_SHAPE_FINGERPRINT>
10 15 14490194890671820114
11211813 128 18340210791538753146
11991303 11 17056970881280651125
12107183 9 18193549206349939497
12236239 1 18335980896278767921
12422481 6 18189327038511644831
12596602 18 17312821541942148658
12633257 1 17167864144917635152
12760667 363 18341896303195889175
13402501 40 17846776308466182130
13533116 47 18411136896476794056
13551218 46 18410572898693835767
13685833 64 18060415798915109891
13782708 43 16987988376963555707
13914758 101 18412266160360978821
14565420 104 17898863344788373800
14849402 71 18189060799024409872
15183329 4 16343712040633801033
15250474 111 18335140847593614022
15537594 2 18410007698509744182
17492 89 18266179624929803726
17857418 61 18407759222731583761
1813 80 17632570552585723140
19377110 9 18261115149775959800
20028762 73 18335704966306199566
20511986 3 18187939338852181901
20554085 129 16226041241441437963
21065198 48 18407754833291247276
21267235 1 18412542137579213838
21315763 178 18261676991026133070
21315764 119 14979687631729931811
22061861 79 17489590047577044911
23522609 53 18119780617495231337
23559900 14 17774439365592086853
3004659 81 18060704987637253224
314194 84 18340201899637060440
3411729 13 16517385271108819192
345986 75 18334863865115395416
3472631 163 9655574132279754856
3633792 109 18271817830636643023
3680242 22 18408598167125671302
437815 12 17704357654426656621
46194498 28 16845575275610180428
463206 1 18339362950906723618
5104073 3 17677606459223874747
513202 73 18059293266268311373
559249 180 18341051912815639993
5718773 13 17845381110606126058
5758199 1 18264488383173981424

> <PUBCHEM_SHAPE_MULTIPOLES>
492.79
16.85
2.49
1.21
0.47
0
0.07
9.05
3.11
-2.56
0.04
1.32
-0.01
-1.71

> <PUBCHEM_SHAPE_SELFOVERLAP>
1071.378

> <PUBCHEM_SHAPE_VOLUME>
269.4

> <PUBCHEM_COORDINATE_TYPE>
2
5
10

$$$$

