14424
  -OEChem-06241222433D

 48 49  0     0  0  0  0  0  0999 V2000
   -2.8003    0.2472   -1.0204 O   0  0  0  0  0  0  0  0  0  0  0  0
    1.1680    2.9340    0.7196 O   0  0  0  0  0  0  0  0  0  0  0  0
   -3.1616   -4.4696    0.0194 N   0  0  0  0  0  0  0  0  0  0  0  0
   -0.3940    1.4071   -0.1536 N   0  0  0  0  0  0  0  0  0  0  0  0
   -2.9822   -2.0892   -0.5253 C   0  0  0  0  0  0  0  0  0  0  0  0
   -3.7873   -3.1649    0.1966 C   0  0  0  0  0  0  0  0  0  0  0  0
   -3.6001   -0.7099   -0.3399 C   0  0  0  0  0  0  0  0  0  0  0  0
   -3.9102   -5.5024    0.7381 C   0  0  0  0  0  0  0  0  0  0  0  0
   -1.7708   -4.4410    0.4758 C   0  0  0  0  0  0  0  0  0  0  0  0
   -2.7906    1.5197   -0.5108 C   0  0  0  0  0  0  0  0  0  0  0  0
   -1.6034    2.1020   -0.0790 C   0  0  0  0  0  0  0  0  0  0  0  0
   -3.9906    2.2194   -0.4327 C   0  0  0  0  0  0  0  0  0  0  0  0
   -1.6162    3.3982    0.4364 C   0  0  0  0  0  0  0  0  0  0  0  0
   -4.0033    3.5155    0.0827 C   0  0  0  0  0  0  0  0  0  0  0  0
   -2.8162    4.1048    0.5172 C   0  0  0  0  0  0  0  0  0  0  0  0
    0.8782    1.8464    0.2351 C   0  0  0  0  0  0  0  0  0  0  0  0
    1.9194    0.8012   -0.0076 C   0  0  0  0  0  0  0  0  0  0  0  0
    4.3086    0.0967    0.0857 C   0  0  0  0  0  0  0  0  0  0  0  0
    3.2030    1.0489    0.2922 C   0  0  0  0  0  0  0  0  0  0  0  0
    4.0254   -1.2530   -0.0472 C   0  0  0  0  0  0  0  0  0  0  0  0
    5.6097    0.5695    0.0286 C   0  0  0  0  0  0  0  0  0  0  0  0
    5.0717   -2.1545   -0.2422 C   0  0  0  0  0  0  0  0  0  0  0  0
    6.6559   -0.3320   -0.1667 C   0  0  0  0  0  0  0  0  0  0  0  0
    6.3869   -1.6941   -0.3021 C   0  0  0  0  0  0  0  0  0  0  0  0
   -1.9553   -2.0122   -0.1513 H   0  0  0  0  0  0  0  0  0  0  0  0
   -2.9034   -2.3146   -1.5966 H   0  0  0  0  0  0  0  0  0  0  0  0
   -4.8031   -3.1843   -0.2174 H   0  0  0  0  0  0  0  0  0  0  0  0
   -3.8744   -2.9094    1.2611 H   0  0  0  0  0  0  0  0  0  0  0  0
   -4.6116   -0.6910   -0.7615 H   0  0  0  0  0  0  0  0  0  0  0  0
   -3.6622   -0.4761    0.7311 H   0  0  0  0  0  0  0  0  0  0  0  0
   -3.4784   -6.4921    0.5516 H   0  0  0  0  0  0  0  0  0  0  0  0
   -3.9211   -5.3281    1.8202 H   0  0  0  0  0  0  0  0  0  0  0  0
   -4.9465   -5.5425    0.3843 H   0  0  0  0  0  0  0  0  0  0  0  0
   -1.1206   -3.9104   -0.2267 H   0  0  0  0  0  0  0  0  0  0  0  0
   -1.6641   -4.0064    1.4765 H   0  0  0  0  0  0  0  0  0  0  0  0
   -1.3621   -5.4585    0.5145 H   0  0  0  0  0  0  0  0  0  0  0  0
   -4.9214    1.7767   -0.7756 H   0  0  0  0  0  0  0  0  0  0  0  0
   -0.7442    3.9267    0.7936 H   0  0  0  0  0  0  0  0  0  0  0  0
   -0.4698    0.4684   -0.5404 H   0  0  0  0  0  0  0  0  0  0  0  0
   -4.9371    4.0666    0.1437 H   0  0  0  0  0  0  0  0  0  0  0  0
   -2.8275    5.1144    0.9178 H   0  0  0  0  0  0  0  0  0  0  0  0
    1.5871   -0.1304   -0.4506 H   0  0  0  0  0  0  0  0  0  0  0  0
    3.4922    2.0105    0.7098 H   0  0  0  0  0  0  0  0  0  0  0  0
    3.0209   -1.6593    0.0151 H   0  0  0  0  0  0  0  0  0  0  0  0
    5.8353    1.6277    0.1310 H   0  0  0  0  0  0  0  0  0  0  0  0
    4.8634   -3.2158   -0.3425 H   0  0  0  0  0  0  0  0  0  0  0  0
    7.6802    0.0263   -0.2133 H   0  0  0  0  0  0  0  0  0  0  0  0
    7.2017   -2.3961   -0.4529 H   0  0  0  0  0  0  0  0  0  0  0  0
  1  7  1  0  0  0  0
  1 10  1  0  0  0  0
  2 16  2  0  0  0  0
  3  6  1  0  0  0  0
  3  8  1  0  0  0  0
  3  9  1  0  0  0  0
  4 11  1  0  0  0  0
  4 16  1  0  0  0  0
  4 39  1  0  0  0  0
  5  6  1  0  0  0  0
  5  7  1  0  0  0  0
  5 25  1  0  0  0  0
  5 26  1  0  0  0  0
  6 27  1  0  0  0  0
  6 28  1  0  0  0  0
  7 29  1  0  0  0  0
  7 30  1  0  0  0  0
  8 31  1  0  0  0  0
  8 32  1  0  0  0  0
  8 33  1  0  0  0  0
  9 34  1  0  0  0  0
  9 35  1  0  0  0  0
  9 36  1  0  0  0  0
 10 11  1  0  0  0  0
 10 12  2  0  0  0  0
 11 13  2  0  0  0  0
 12 14  1  0  0  0  0
 12 37  1  0  0  0  0
 13 15  1  0  0  0  0
 13 38  1  0  0  0  0
 14 15  2  0  0  0  0
 14 40  1  0  0  0  0
 15 41  1  0  0  0  0
 16 17  1  0  0  0  0
 17 19  2  0  0  0  0
 17 42  1  0  0  0  0
 18 19  1  0  0  0  0
 18 20  2  0  0  0  0
 18 21  1  0  0  0  0
 19 43  1  0  0  0  0
 20 22  1  0  0  0  0
 20 44  1  0  0  0  0
 21 23  2  0  0  0  0
 21 45  1  0  0  0  0
 22 24  2  0  0  0  0
 22 46  1  0  0  0  0
 23 24  1  0  0  0  0
 23 47  1  0  0  0  0
 24 48  1  0  0  0  0
M  END
> <PUBCHEM_COMPOUND_CID>
14424

> <PUBCHEM_CONFORMER_RMSD>
1

> <PUBCHEM_CONFORMER_DIVERSEORDER>
1
26
61
53
19
68
43
51
45
64
9
14
62
58
13
33
20
69
44
17
70
42
25
27
55
3
47
49
46
21
18
67
32
23
40
54
50
66
56
5
59
22
30
63
6
65
60
37
28
48
11
12
29
57
31
38
39
36
8
24
16
41
7
10
4
15
52
2
34
35

> <PUBCHEM_MMFF94_PARTIAL_CHARGES>
35
1 -0.36
10 0.08
11 0.12
12 -0.15
13 -0.15
14 -0.15
15 -0.15
16 0.62
17 -0.14
18 0.03
19 -0.18
2 -0.57
20 -0.15
21 -0.15
22 -0.15
23 -0.15
24 -0.15
3 -0.81
37 0.15
38 0.15
39 0.37
4 -0.55
40 0.15
41 0.15
42 0.15
43 0.15
44 0.15
45 0.15
46 0.15
47 0.15
48 0.15
6 0.27
7 0.28
8 0.27
9 0.27

> <PUBCHEM_EFFECTIVE_ROTOR_COUNT>
9

> <PUBCHEM_PHARMACOPHORE_FEATURES>
6
1 1 acceptor
1 2 acceptor
1 3 cation
1 4 donor
6 10 11 12 13 14 15 rings
6 18 20 21 22 23 24 rings

> <PUBCHEM_HEAVY_ATOM_COUNT>
24

> <PUBCHEM_ATOM_DEF_STEREO_COUNT>
0

> <PUBCHEM_ATOM_UDEF_STEREO_COUNT>
0

> <PUBCHEM_BOND_DEF_STEREO_COUNT>
0

> <PUBCHEM_BOND_UDEF_STEREO_COUNT>
1

> <PUBCHEM_ISOTOPIC_ATOM_COUNT>
0

> <PUBCHEM_COMPONENT_COUNT>
1

> <PUBCHEM_CACTVS_TAUTO_COUNT>
2

> <PUBCHEM_CONFORMER_ID>
0000385800000001

> <PUBCHEM_MMFF94_ENERGY>
76.5011

> <PUBCHEM_FEATURE_SELFOVERLAP>
30.446

> <PUBCHEM_SHAPE_FINGERPRINT>
10462674 296 17394741571073349014
107951 10 18191026905437673181
10940486 97 18272079522324699412
11014199 57 18268427940796576468
11227688 84 17829622655746297797
12107183 9 17976521838357712155
12990986 174 18338796706475730199
13785724 45 17977653226731650391
138480 1 16609136664413977619
13911852 28 17977386036826605487
13989917 61 17116070292483004035
14251757 5 18410295825921479595
14444916 359 18048299331064008745
14461889 52 18114761386596657824
14659021 117 18341058414979174466
14790565 3 17833549372404095057
14844126 61 18413103957634301331
14866123 147 18409163295534587259
15042514 8 18410572852076871389
15250474 111 18271256031386732722
15400415 2 18122907805021989756
15927050 60 18119253015955079717
16719943 64 18265618869145300127
167882 2 17186729853865954421
16993438 75 18341886403086023010
17492 89 18338801083348195564
17627616 140 17980769551658486919
17859628 70 17187001987245812051
17909252 39 18122059802351841536
19301676 85 18337964376870849879
20286276 3 18337390448484686000
20771845 38 18192988443146015985
20775530 9 18123478176362153723
23379529 103 18266458711287395978
23466295 7 18410852123471556849
23559900 14 18261125101152426864
3383291 50 18410296943372430507
3421961 26 17474108696963092515
395649 100 18412262849094453662
4073 2 18409451414814934416
484985 159 18413109459687964507
5104073 3 18114752641711401624
5309563 4 18121781617025310295
56633871 153 18193828246681573467
613672 6 17977411350973172011
6431902 208 18337116648888586942
6441014 3 18194966244942193546
7970288 3 18122624942512288675

> <PUBCHEM_SHAPE_MULTIPOLES>
472.21
14.27
7.34
0.76
25.97
8.71
0.01
6.08
1.09
-15.24
-1.94
-0.28
0.03
0.95

> <PUBCHEM_SHAPE_SELFOVERLAP>
980.831

> <PUBCHEM_SHAPE_VOLUME>
269.4

> <PUBCHEM_COORDINATE_TYPE>
2
5
10

$$$$

