4976
  -OEChem-06261200272D

 41 43  0     0  0  0  0  0  0999 V2000
    3.1509   -2.0953    0.0000 N   0  0  0  0  0  0  0  0  0  0  0  0
    4.8830    0.9047    0.0000 C   0  0  0  0  0  0  0  0  0  0  0  0
    4.8830   -0.0953    0.0000 C   0  0  0  0  0  0  0  0  0  0  0  0
    3.9820    1.3386    0.0000 C   0  0  0  0  0  0  0  0  0  0  0  0
    5.7840    1.3385    0.0000 C   0  0  0  0  0  0  0  0  0  0  0  0
    4.0170   -0.5953    0.0000 C   0  0  0  0  0  0  0  0  0  0  0  0
    3.7595    2.3135    0.0000 C   0  0  0  0  0  0  0  0  0  0  0  0
    6.0065    2.3135    0.0000 C   0  0  0  0  0  0  0  0  0  0  0  0
    4.0169   -1.5953    0.0000 C   0  0  0  0  0  0  0  0  0  0  0  0
    6.5365    0.6184    0.0000 C   0  0  0  0  0  0  0  0  0  0  0  0
    3.2295    0.6184    0.0000 C   0  0  0  0  0  0  0  0  0  0  0  0
    5.3830    3.0953    0.0000 C   0  0  0  0  0  0  0  0  0  0  0  0
    4.3830    3.0953    0.0000 C   0  0  0  0  0  0  0  0  0  0  0  0
    6.9970    2.6358    0.0000 C   0  0  0  0  0  0  0  0  0  0  0  0
    2.7690    2.6358    0.0000 C   0  0  0  0  0  0  0  0  0  0  0  0
    7.5342    0.9177    0.0000 C   0  0  0  0  0  0  0  0  0  0  0  0
    2.2318    0.9177    0.0000 C   0  0  0  0  0  0  0  0  0  0  0  0
    7.7660    1.9332    0.0000 C   0  0  0  0  0  0  0  0  0  0  0  0
    2.0000    1.9333    0.0000 C   0  0  0  0  0  0  0  0  0  0  0  0
    3.1509   -3.0953    0.0000 C   0  0  0  0  0  0  0  0  0  0  0  0
    5.4080    0.5748    0.0000 H   0  0  0  0  0  0  0  0  0  0  0  0
    5.0950   -0.6779    0.0000 H   0  0  0  0  0  0  0  0  0  0  0  0
    5.4936    0.0123    0.0000 H   0  0  0  0  0  0  0  0  0  0  0  0
    3.8049   -0.0127    0.0000 H   0  0  0  0  0  0  0  0  0  0  0  0
    3.4064   -0.7030    0.0000 H   0  0  0  0  0  0  0  0  0  0  0  0
    4.2290   -2.1779    0.0000 H   0  0  0  0  0  0  0  0  0  0  0  0
    4.6275   -1.4877    0.0000 H   0  0  0  0  0  0  0  0  0  0  0  0
    3.3744    0.0156    0.0000 H   0  0  0  0  0  0  0  0  0  0  0  0
    6.3916    0.0155    0.0000 H   0  0  0  0  0  0  0  0  0  0  0  0
    4.1140    3.6539    0.0000 H   0  0  0  0  0  0  0  0  0  0  0  0
    5.6520    3.6539    0.0000 H   0  0  0  0  0  0  0  0  0  0  0  0
    7.1280    3.2418    0.0000 H   0  0  0  0  0  0  0  0  0  0  0  0
    2.6380    3.2418    0.0000 H   0  0  0  0  0  0  0  0  0  0  0  0
    7.9871    0.4942    0.0000 H   0  0  0  0  0  0  0  0  0  0  0  0
    1.7789    0.4943    0.0000 H   0  0  0  0  0  0  0  0  0  0  0  0
    2.6140   -1.7853    0.0000 H   0  0  0  0  0  0  0  0  0  0  0  0
    8.3578    2.1182    0.0000 H   0  0  0  0  0  0  0  0  0  0  0  0
    1.4083    2.1183    0.0000 H   0  0  0  0  0  0  0  0  0  0  0  0
    2.5309   -3.0953    0.0000 H   0  0  0  0  0  0  0  0  0  0  0  0
    3.1509   -3.7153    0.0000 H   0  0  0  0  0  0  0  0  0  0  0  0
    3.7709   -3.0953    0.0000 H   0  0  0  0  0  0  0  0  0  0  0  0
  1  9  1  0  0  0  0
  1 20  1  0  0  0  0
  1 36  1  0  0  0  0
  2  3  1  0  0  0  0
  2  4  1  0  0  0  0
  2  5  1  0  0  0  0
  2 21  1  0  0  0  0
  3  6  1  0  0  0  0
  3 22  1  0  0  0  0
  3 23  1  0  0  0  0
  4  7  1  0  0  0  0
  4 11  2  0  0  0  0
  5  8  1  0  0  0  0
  5 10  2  0  0  0  0
  6  9  1  0  0  0  0
  6 24  1  0  0  0  0
  6 25  1  0  0  0  0
  7 13  1  0  0  0  0
  7 15  2  0  0  0  0
  8 12  1  0  0  0  0
  8 14  2  0  0  0  0
  9 26  1  0  0  0  0
  9 27  1  0  0  0  0
 10 16  1  0  0  0  0
 10 29  1  0  0  0  0
 11 17  1  0  0  0  0
 11 28  1  0  0  0  0
 12 13  2  0  0  0  0
 12 31  1  0  0  0  0
 13 30  1  0  0  0  0
 14 18  1  0  0  0  0
 14 32  1  0  0  0  0
 15 19  1  0  0  0  0
 15 33  1  0  0  0  0
 16 18  2  0  0  0  0
 16 34  1  0  0  0  0
 17 19  2  0  0  0  0
 17 35  1  0  0  0  0
 18 37  1  0  0  0  0
 19 38  1  0  0  0  0
 20 39  1  0  0  0  0
 20 40  1  0  0  0  0
 20 41  1  0  0  0  0
M  END
> <PUBCHEM_COMPOUND_CID>
4976

> <PUBCHEM_COMPOUND_CANONICALIZED>
1

> <PUBCHEM_CACTVS_COMPLEXITY>
296

> <PUBCHEM_CACTVS_HBOND_ACCEPTOR>
1

> <PUBCHEM_CACTVS_HBOND_DONOR>
1

> <PUBCHEM_CACTVS_ROTATABLE_BOND>
4

> <PUBCHEM_CACTVS_SUBSKEYS>
AAADceB6AAAAAAAAAAAAAAAAAAAAAAAAAAAwYAAABAAAAAABQAAAHAAQAAAADQDBGAQyAILAAACAAiBCAAACAAAgAAAIiIAIAIgIICKAkRCEIAAgkAAIiAcQgMAOgAAAAAAQAAAAAAAAACAAAAAAAAAAAA==

> <PUBCHEM_IUPAC_OPENEYE_NAME>
3-(11H-dibenzo[1,2-a:1',2'-e][7]annulen-11-yl)-N-methyl-propan-1-amine

> <PUBCHEM_IUPAC_CAS_NAME>
3-(11H-dibenzo[1,2-a:1',2'-e][7]annulen-11-yl)-N-methyl-1-propanamine

> <PUBCHEM_IUPAC_NAME>
3-(11H-dibenzo[1,2-a:1',2'-e][7]annulen-11-yl)-N-methylpropan-1-amine

> <PUBCHEM_IUPAC_SYSTEMATIC_NAME>
3-(11H-dibenzo[1,2-a:1',2'-e][7]annulen-11-yl)-N-methyl-propan-1-amine

> <PUBCHEM_IUPAC_TRADITIONAL_NAME>
3-(11H-dibenzo[1,2-a:1',2'-e]cyclohepten-11-yl)propyl-methyl-amine

> <PUBCHEM_IUPAC_INCHI>
InChI=1S/C19H21N/c1-20-14-6-11-19-17-9-4-2-7-15(17)12-13-16-8-3-5-10-18(16)19/h2-5,7-10,12-13,19-20H,6,11,14H2,1H3

> <PUBCHEM_IUPAC_INCHIKEY>
BWPIARFWQZKAIA-UHFFFAOYSA-N

> <PUBCHEM_XLOGP3_AA>
4.4

> <PUBCHEM_EXACT_MASS>
263.1674

> <PUBCHEM_MOLECULAR_FORMULA>
C19H21N

> <PUBCHEM_MOLECULAR_WEIGHT>
263.37674

> <PUBCHEM_OPENEYE_CAN_SMILES>
CNCCCC1C2=CC=CC=C2C=CC3=CC=CC=C13

> <PUBCHEM_OPENEYE_ISO_SMILES>
CNCCCC1C2=CC=CC=C2C=CC3=CC=CC=C13

> <PUBCHEM_CACTVS_TPSA>
12

> <PUBCHEM_MONOISOTOPIC_WEIGHT>
263.1674

> <PUBCHEM_TOTAL_CHARGE>
0

> <PUBCHEM_HEAVY_ATOM_COUNT>
20

> <PUBCHEM_ATOM_DEF_STEREO_COUNT>
0

> <PUBCHEM_ATOM_UDEF_STEREO_COUNT>
0

> <PUBCHEM_BOND_DEF_STEREO_COUNT>
0

> <PUBCHEM_BOND_UDEF_STEREO_COUNT>
0

> <PUBCHEM_ISOTOPIC_ATOM_COUNT>
0

> <PUBCHEM_COMPONENT_COUNT>
1

> <PUBCHEM_CACTVS_TAUTO_COUNT>
1

> <PUBCHEM_COORDINATE_TYPE>
1
5
255

> <PUBCHEM_BONDANNOTATIONS>
10  16  8
11  17  8
14  18  8
15  19  8
16  18  8
17  19  8
4  11  8
4  7  8
5  10  8
5  8  8
7  15  8
8  14  8

$$$$

