12760
  -OEChem-06261207202D

 14 14  0     0  0  0  0  0  0999 V2000
    6.2633    0.5282    0.0000 O   0  5  0  0  0  0  0  0  0  0  0  0
    5.7281   -1.1191    0.0000 O   0  0  0  0  0  0  0  0  0  0  0  0
    3.7601   -0.4197    0.0000 N   0  0  0  0  0  0  0  0  0  0  0  0
    3.2601    1.1191    0.0000 N   0  0  0  0  0  0  0  0  0  0  0  0
    5.5202   -0.1410    0.0000 N   0  3  0  0  0  0  0  0  0  0  0  0
    2.9511    0.1681    0.0000 C   0  0  0  0  0  0  0  0  0  0  0  0
    4.5691    0.1681    0.0000 C   0  0  0  0  0  0  0  0  0  0  0  0
    4.2601    1.1191    0.0000 C   0  0  0  0  0  0  0  0  0  0  0  0
    2.0000   -0.1410    0.0000 C   0  0  0  0  0  0  0  0  0  0  0  0
    3.7601   -1.0397    0.0000 H   0  0  0  0  0  0  0  0  0  0  0  0
    4.6245    1.6207    0.0000 H   0  0  0  0  0  0  0  0  0  0  0  0
    1.8084    0.4487    0.0000 H   0  0  0  0  0  0  0  0  0  0  0  0
    1.4103   -0.3326    0.0000 H   0  0  0  0  0  0  0  0  0  0  0  0
    2.1916   -0.7306    0.0000 H   0  0  0  0  0  0  0  0  0  0  0  0
  1  5  1  0  0  0  0
  2  5  2  0  0  0  0
  3  6  1  0  0  0  0
  3  7  1  0  0  0  0
  3 10  1  0  0  0  0
  4  6  2  0  0  0  0
  4  8  1  0  0  0  0
  5  7  1  0  0  0  0
  6  9  1  0  0  0  0
  7  8  2  0  0  0  0
  8 11  1  0  0  0  0
  9 12  1  0  0  0  0
  9 13  1  0  0  0  0
  9 14  1  0  0  0  0
M  CHG  2   1  -1   5   1
M  END
> <PUBCHEM_COMPOUND_CID>
12760

> <PUBCHEM_COMPOUND_CANONICALIZED>
1

> <PUBCHEM_CACTVS_COMPLEXITY>
122

> <PUBCHEM_CACTVS_HBOND_ACCEPTOR>
3

> <PUBCHEM_CACTVS_HBOND_DONOR>
1

> <PUBCHEM_CACTVS_ROTATABLE_BOND>
0

> <PUBCHEM_CACTVS_SUBSKEYS>
AAADcYBjMAAAAAAAAAAAAAAAAAAAAWAAAAAAAAAAAAAAAAABgAAAHAAUAAAAAADBAwQvsBbZ0AChABInZwAAgC2REqAhQQAYMAKASAAACAAQAAAIEIKAACAAAAAAAAAAAAAAAAAAAAAAAAAAAAAAAAAAAA==

> <PUBCHEM_IUPAC_OPENEYE_NAME>
2-methyl-5-nitro-1H-imidazole

> <PUBCHEM_IUPAC_CAS_NAME>
2-methyl-5-nitro-1H-imidazole

> <PUBCHEM_IUPAC_NAME>
2-methyl-5-nitro-1H-imidazole

> <PUBCHEM_IUPAC_SYSTEMATIC_NAME>
2-methyl-5-nitro-1H-imidazole

> <PUBCHEM_IUPAC_TRADITIONAL_NAME>
2-methyl-5-nitro-1H-imidazole

> <PUBCHEM_IUPAC_INCHI>
InChI=1S/C4H5N3O2/c1-3-5-2-4(6-3)7(8)9/h2H,1H3,(H,5,6)

> <PUBCHEM_IUPAC_INCHIKEY>
FFYTTYVSDVWNMY-UHFFFAOYSA-N

> <PUBCHEM_XLOGP3>
0.3

> <PUBCHEM_EXACT_MASS>
127.038176

> <PUBCHEM_MOLECULAR_FORMULA>
C4H5N3O2

> <PUBCHEM_MOLECULAR_WEIGHT>
127.1014

> <PUBCHEM_OPENEYE_CAN_SMILES>
CC1=NC=C(N1)[N+](=O)[O-]

> <PUBCHEM_OPENEYE_ISO_SMILES>
CC1=NC=C(N1)[N+](=O)[O-]

> <PUBCHEM_CACTVS_TPSA>
74.5

> <PUBCHEM_MONOISOTOPIC_WEIGHT>
127.038176

> <PUBCHEM_TOTAL_CHARGE>
0

> <PUBCHEM_HEAVY_ATOM_COUNT>
9

> <PUBCHEM_ATOM_DEF_STEREO_COUNT>
0

> <PUBCHEM_ATOM_UDEF_STEREO_COUNT>
0

> <PUBCHEM_BOND_DEF_STEREO_COUNT>
0

> <PUBCHEM_BOND_UDEF_STEREO_COUNT>
0

> <PUBCHEM_ISOTOPIC_ATOM_COUNT>
0

> <PUBCHEM_COMPONENT_COUNT>
1

> <PUBCHEM_CACTVS_TAUTO_COUNT>
2

> <PUBCHEM_COORDINATE_TYPE>
1
5
255

> <PUBCHEM_BONDANNOTATIONS>
3  6  8
3  7  8
4  6  8
4  8  8
7  8  8

$$$$

