4223
  -OEChem-06251223583D

 48 50  0     1  0  0  0  0  0999 V2000
    1.9007   -2.0869    0.5177 S   0  0  0  0  0  0  0  0  0  0  0  0
    1.9892   -3.0296    1.6166 O   0  0  0  0  0  0  0  0  0  0  0  0
    2.4081   -2.4445   -0.7931 O   0  0  0  0  0  0  0  0  0  0  0  0
    5.4129   -0.0031    0.6191 O   0  0  0  0  0  0  0  0  0  0  0  0
    6.1078   -0.9201   -1.8238 O   0  0  0  0  0  0  0  0  0  0  0  0
    2.5892   -0.6071    0.9858 N   0  0  0  0  0  0  0  0  0  0  0  0
    4.7908   -0.5346   -1.5404 N   0  0  0  0  0  0  0  0  0  0  0  0
    3.1124    0.3221   -0.0448 C   0  0  1  0  0  0  0  0  0  0  0  0
    3.0077    1.7591    0.4727 C   0  0  0  0  0  0  0  0  0  0  0  0
    1.6132    2.3238    0.3518 C   0  0  0  0  0  0  0  0  0  0  0  0
    0.2006   -1.6493    0.3105 C   0  0  0  0  0  0  0  0  0  0  0  0
    4.5598   -0.0849   -0.2628 C   0  0  0  0  0  0  0  0  0  0  0  0
   -0.2389   -1.2134   -0.9275 C   0  0  0  0  0  0  0  0  0  0  0  0
   -0.6597   -1.7507    1.3901 C   0  0  0  0  0  0  0  0  0  0  0  0
   -2.4614   -0.9639   -0.0142 C   0  0  0  0  0  0  0  0  0  0  0  0
    1.2494    2.9941   -0.8057 C   0  0  0  0  0  0  0  0  0  0  0  0
    0.7210    2.1617    1.4001 C   0  0  0  0  0  0  0  0  0  0  0  0
   -1.5803   -0.8678   -1.0911 C   0  0  0  0  0  0  0  0  0  0  0  0
   -2.0012   -1.4053    1.2264 C   0  0  0  0  0  0  0  0  0  0  0  0
   -3.8528   -0.6057   -0.1838 C   0  0  0  0  0  0  0  0  0  0  0  0
   -0.0394    3.5157   -0.9176 C   0  0  0  0  0  0  0  0  0  0  0  0
   -0.5678    2.6834    1.2880 C   0  0  0  0  0  0  0  0  0  0  0  0
   -0.9479    3.3604    0.1291 C   0  0  0  0  0  0  0  0  0  0  0  0
   -4.2681    0.7064    0.0444 C   0  0  0  0  0  0  0  0  0  0  0  0
   -4.7794   -1.5719   -0.5762 C   0  0  0  0  0  0  0  0  0  0  0  0
   -5.6095    1.0521   -0.1194 C   0  0  0  0  0  0  0  0  0  0  0  0
   -6.1208   -1.2260   -0.7401 C   0  0  0  0  0  0  0  0  0  0  0  0
   -6.5357    0.0860   -0.5117 C   0  0  0  0  0  0  0  0  0  0  0  0
    2.5393    0.2201   -0.9731 H   0  0  0  0  0  0  0  0  0  0  0  0
    3.6961    2.4053   -0.0894 H   0  0  0  0  0  0  0  0  0  0  0  0
    3.3435    1.8291    1.5166 H   0  0  0  0  0  0  0  0  0  0  0  0
    2.9758   -0.5109    1.9330 H   0  0  0  0  0  0  0  0  0  0  0  0
    0.4316   -1.1247   -1.7766 H   0  0  0  0  0  0  0  0  0  0  0  0
   -0.3178   -2.0846    2.3648 H   0  0  0  0  0  0  0  0  0  0  0  0
    1.9488    3.1174   -1.6276 H   0  0  0  0  0  0  0  0  0  0  0  0
    1.0062    1.6360    2.3068 H   0  0  0  0  0  0  0  0  0  0  0  0
   -1.9220   -0.5231   -2.0643 H   0  0  0  0  0  0  0  0  0  0  0  0
   -2.6745   -1.4837    2.0768 H   0  0  0  0  0  0  0  0  0  0  0  0
    4.1455   -0.4970   -2.3209 H   0  0  0  0  0  0  0  0  0  0  0  0
   -0.3360    4.0415   -1.8205 H   0  0  0  0  0  0  0  0  0  0  0  0
   -1.2763    2.5604    2.1019 H   0  0  0  0  0  0  0  0  0  0  0  0
   -1.9519    3.7652    0.0413 H   0  0  0  0  0  0  0  0  0  0  0  0
   -3.5604    1.4717    0.3523 H   0  0  0  0  0  0  0  0  0  0  0  0
   -4.4729   -2.5993   -0.7585 H   0  0  0  0  0  0  0  0  0  0  0  0
   -5.9328    2.0735    0.0588 H   0  0  0  0  0  0  0  0  0  0  0  0
   -6.8422   -1.9782   -1.0456 H   0  0  0  0  0  0  0  0  0  0  0  0
   -7.5802    0.3551   -0.6392 H   0  0  0  0  0  0  0  0  0  0  0  0
    6.0432   -1.8779   -1.6700 H   0  0  0  0  0  0  0  0  0  0  0  0
  1  2  2  0  0  0  0
  1  3  2  0  0  0  0
  1  6  1  0  0  0  0
  1 11  1  0  0  0  0
  4 12  2  0  0  0  0
  5  7  1  0  0  0  0
  5 48  1  0  0  0  0
  6  8  1  0  0  0  0
  6 32  1  0  0  0  0
  7 12  1  0  0  0  0
  7 39  1  0  0  0  0
  8  9  1  0  0  0  0
  8 12  1  0  0  0  0
  8 29  1  0  0  0  0
  9 10  1  0  0  0  0
  9 30  1  0  0  0  0
  9 31  1  0  0  0  0
 10 16  2  0  0  0  0
 10 17  1  0  0  0  0
 11 13  2  0  0  0  0
 11 14  1  0  0  0  0
 13 18  1  0  0  0  0
 13 33  1  0  0  0  0
 14 19  2  0  0  0  0
 14 34  1  0  0  0  0
 15 18  2  0  0  0  0
 15 19  1  0  0  0  0
 15 20  1  0  0  0  0
 16 21  1  0  0  0  0
 16 35  1  0  0  0  0
 17 22  2  0  0  0  0
 17 36  1  0  0  0  0
 18 37  1  0  0  0  0
 19 38  1  0  0  0  0
 20 24  2  0  0  0  0
 20 25  1  0  0  0  0
 21 23  2  0  0  0  0
 21 40  1  0  0  0  0
 22 23  1  0  0  0  0
 22 41  1  0  0  0  0
 23 42  1  0  0  0  0
 24 26  1  0  0  0  0
 24 43  1  0  0  0  0
 25 27  2  0  0  0  0
 25 44  1  0  0  0  0
 26 28  2  0  0  0  0
 26 45  1  0  0  0  0
 27 28  1  0  0  0  0
 27 46  1  0  0  0  0
 28 47  1  0  0  0  0
M  END
> <PUBCHEM_COMPOUND_CID>
4223

> <PUBCHEM_CONFORMER_RMSD>
1

> <PUBCHEM_CONFORMER_DIVERSEORDER>
1
12
32
29
46
11
34
9
37
43
33
38
40
8
45
17
25
14
6
23
5
27
20
21
35
31
39
10
44
28
3
42
4
13
41
16
2
7
36
22
24
19
18
30
26
15

> <PUBCHEM_MMFF94_PARTIAL_CHARGES>
43
1 1.45
10 -0.14
11 -0.01
12 0.57
13 -0.15
14 -0.15
16 -0.15
17 -0.15
18 -0.15
19 -0.15
2 -0.65
21 -0.15
22 -0.15
23 -0.15
24 -0.15
25 -0.15
26 -0.15
27 -0.15
28 -0.15
3 -0.65
32 0.42
33 0.15
34 0.15
35 0.15
36 0.15
37 0.15
38 0.15
39 0.37
4 -0.57
40 0.15
41 0.15
42 0.15
43 0.15
44 0.15
45 0.15
46 0.15
47 0.15
48 0.4
5 -0.44
6 -0.91
7 -0.39
8 0.42
9 0.14

> <PUBCHEM_EFFECTIVE_ROTOR_COUNT>
8

> <PUBCHEM_PHARMACOPHORE_FEATURES>
8
1 2 acceptor
1 3 acceptor
1 4 acceptor
1 6 donor
1 7 donor
6 10 16 17 21 22 23 rings
6 11 13 14 15 18 19 rings
6 20 24 25 26 27 28 rings

> <PUBCHEM_HEAVY_ATOM_COUNT>
28

> <PUBCHEM_ATOM_DEF_STEREO_COUNT>
0

> <PUBCHEM_ATOM_UDEF_STEREO_COUNT>
1

> <PUBCHEM_BOND_DEF_STEREO_COUNT>
0

> <PUBCHEM_BOND_UDEF_STEREO_COUNT>
0

> <PUBCHEM_ISOTOPIC_ATOM_COUNT>
0

> <PUBCHEM_COMPONENT_COUNT>
1

> <PUBCHEM_CACTVS_TAUTO_COUNT>
3

> <PUBCHEM_CONFORMER_ID>
0000107F00000001

> <PUBCHEM_MMFF94_ENERGY>
65.2157

> <PUBCHEM_FEATURE_SELFOVERLAP>
40.613

> <PUBCHEM_SHAPE_FINGERPRINT>
10165383 225 17775566429345441566
10366900 7 17988647367787596411
104564 63 18337106864952748568
11513181 2 17751074932696231823
11578080 2 13685144528956982124
11646440 116 18335413548147032249
12011746 2 18412542115291792655
12166972 35 18040713624271461209
12422481 6 18120971452943336761
12633257 1 17702404878477815761
12788726 201 18340486793397306600
13402501 40 18341900666698344437
13899415 154 18341888580628556183
14068700 675 18260546740708368520
14464042 87 18335421308920853328
14681490 219 18409168822572071037
14787075 74 18202567302120923531
14931854 50 18342455988599691143
15210252 30 18059572460475067172
15238133 3 18130795555320355650
15297060 5 17168978058235296099
1601671 61 18408608071272276315
17093844 170 18411989026831898128
17357779 13 18333731325606032284
18681886 176 17895483526941696695
20905425 154 18264210373106503581
21279426 13 18409172112685967941
21285901 2 18187637042443570724
21641784 216 18129369548837401172
21792965 270 17556275299006180684
21860390 5 18409449155060854375
23559900 14 18268718212589054411
24893992 56 18343865503600615409
249057 3 18261396603473149383
3014063 31 18410578409089520609
340366 18 18041561317366010679
469060 322 18130783512269519988
474 4 18198914617419644235
508706 21 18130243588163072901
6138700 20 18409730672670596363

> <PUBCHEM_SHAPE_MULTIPOLES>
546.64
12.13
3.87
1.36
8.02
2.83
-0.03
-3.65
4.51
-1.52
-0.45
-0.99
-0.27
0.07

> <PUBCHEM_SHAPE_SELFOVERLAP>
1163.373

> <PUBCHEM_SHAPE_VOLUME>
303.8

> <PUBCHEM_COORDINATE_TYPE>
2
5
10

$$$$

