17396049
  -OEChem-06241222543D

 47 48  0     1  0  0  0  0  0999 V2000
    5.3738    1.7733    0.4950 S   0  0  0  0  0  0  0  0  0  0  0  0
   -2.7717   -1.5868    1.4947 O   0  0  0  0  0  0  0  0  0  0  0  0
   -2.4086    0.1385   -0.0137 N   0  0  0  0  0  0  0  0  0  0  0  0
   -0.3378   -1.5747   -0.8725 N   0  0  1  0  0  0  0  0  0  0  0  0
   -2.9834    1.1944    0.7827 C   0  0  0  0  0  0  0  0  0  0  0  0
   -4.4587    1.3998    0.4639 C   0  0  0  0  0  0  0  0  0  0  0  0
   -2.3742    2.5518    0.4524 C   0  0  0  0  0  0  0  0  0  0  0  0
   -4.4627    2.2706   -0.7895 C   0  0  0  0  0  0  0  0  0  0  0  0
   -3.1424    3.0415   -0.7740 C   0  0  0  0  0  0  0  0  0  0  0  0
   -1.6807   -2.0878   -0.6136 C   0  0  2  0  0  0  0  0  0  0  0  0
   -2.3493   -1.1826    0.4133 C   0  0  0  0  0  0  0  0  0  0  0  0
   -1.6071   -3.5167   -0.0897 C   0  0  0  0  0  0  0  0  0  0  0  0
    0.5689   -1.9379    0.2167 C   0  0  0  0  0  0  0  0  0  0  0  0
    0.1682   -2.0827   -2.1478 C   0  0  0  0  0  0  0  0  0  0  0  0
    1.7590   -1.0183    0.2860 C   0  0  0  0  0  0  0  0  0  0  0  0
    1.5824    0.3611    0.1777 C   0  0  0  0  0  0  0  0  0  0  0  0
    3.0386   -1.5462    0.4585 C   0  0  0  0  0  0  0  0  0  0  0  0
    2.6852    1.2127    0.2419 C   0  0  0  0  0  0  0  0  0  0  0  0
    4.1416   -0.6946    0.5226 C   0  0  0  0  0  0  0  0  0  0  0  0
    3.9648    0.6847    0.4144 C   0  0  0  0  0  0  0  0  0  0  0  0
    5.2942    2.6000   -1.1189 C   0  0  0  0  0  0  0  0  0  0  0  0
   -2.8422    0.9470    1.8404 H   0  0  0  0  0  0  0  0  0  0  0  0
   -4.9411    1.9468    1.2834 H   0  0  0  0  0  0  0  0  0  0  0  0
   -5.0086    0.4654    0.3136 H   0  0  0  0  0  0  0  0  0  0  0  0
   -1.2957    2.5137    0.2708 H   0  0  0  0  0  0  0  0  0  0  0  0
   -2.5496    3.2455    1.2839 H   0  0  0  0  0  0  0  0  0  0  0  0
   -5.3274    2.9415   -0.8085 H   0  0  0  0  0  0  0  0  0  0  0  0
   -4.5145    1.6436   -1.6873 H   0  0  0  0  0  0  0  0  0  0  0  0
   -3.3054    4.1233   -0.7309 H   0  0  0  0  0  0  0  0  0  0  0  0
   -2.5779    2.8325   -1.6900 H   0  0  0  0  0  0  0  0  0  0  0  0
   -2.0694    0.3657   -0.9444 H   0  0  0  0  0  0  0  0  0  0  0  0
   -2.3037   -2.0505   -1.5170 H   0  0  0  0  0  0  0  0  0  0  0  0
   -1.2093   -3.6119    0.9265 H   0  0  0  0  0  0  0  0  0  0  0  0
   -1.0499   -4.1875   -0.7511 H   0  0  0  0  0  0  0  0  0  0  0  0
   -2.6249   -3.9256   -0.0376 H   0  0  0  0  0  0  0  0  0  0  0  0
    0.9098   -2.9793    0.1399 H   0  0  0  0  0  0  0  0  0  0  0  0
    0.0909   -1.8282    1.1997 H   0  0  0  0  0  0  0  0  0  0  0  0
    1.1323   -1.6232   -2.3934 H   0  0  0  0  0  0  0  0  0  0  0  0
    0.3037   -3.1691   -2.1652 H   0  0  0  0  0  0  0  0  0  0  0  0
   -0.5094   -1.8102   -2.9653 H   0  0  0  0  0  0  0  0  0  0  0  0
    0.5943    0.7951    0.0559 H   0  0  0  0  0  0  0  0  0  0  0  0
    3.1917   -2.6186    0.5453 H   0  0  0  0  0  0  0  0  0  0  0  0
    2.5223    2.2847    0.1646 H   0  0  0  0  0  0  0  0  0  0  0  0
    5.1312   -1.1244    0.6571 H   0  0  0  0  0  0  0  0  0  0  0  0
    5.2894    1.8612   -1.9249 H   0  0  0  0  0  0  0  0  0  0  0  0
    4.3994    3.2236   -1.1913 H   0  0  0  0  0  0  0  0  0  0  0  0
    6.1726    3.2399   -1.2367 H   0  0  0  0  0  0  0  0  0  0  0  0
  1 20  1  0  0  0  0
  1 21  1  0  0  0  0
  2 11  2  0  0  0  0
  3  5  1  0  0  0  0
  3 11  1  0  0  0  0
  3 31  1  0  0  0  0
  4 10  1  0  0  0  0
  4 13  1  0  0  0  0
  4 14  1  0  0  0  0
  5  6  1  0  0  0  0
  5  7  1  0  0  0  0
  5 22  1  0  0  0  0
  6  8  1  0  0  0  0
  6 23  1  0  0  0  0
  6 24  1  0  0  0  0
  7  9  1  0  0  0  0
  7 25  1  0  0  0  0
  7 26  1  0  0  0  0
  8  9  1  0  0  0  0
  8 27  1  0  0  0  0
  8 28  1  0  0  0  0
  9 29  1  0  0  0  0
  9 30  1  0  0  0  0
 10 11  1  0  0  0  0
 10 12  1  0  0  0  0
 10 32  1  0  0  0  0
 12 33  1  0  0  0  0
 12 34  1  0  0  0  0
 12 35  1  0  0  0  0
 13 15  1  0  0  0  0
 13 36  1  0  0  0  0
 13 37  1  0  0  0  0
 14 38  1  0  0  0  0
 14 39  1  0  0  0  0
 14 40  1  0  0  0  0
 15 16  2  0  0  0  0
 15 17  1  0  0  0  0
 16 18  1  0  0  0  0
 16 41  1  0  0  0  0
 17 19  2  0  0  0  0
 17 42  1  0  0  0  0
 18 20  2  0  0  0  0
 18 43  1  0  0  0  0
 19 20  1  0  0  0  0
 19 44  1  0  0  0  0
 21 45  1  0  0  0  0
 21 46  1  0  0  0  0
 21 47  1  0  0  0  0
M  END
> <PUBCHEM_COMPOUND_CID>
17396049

> <PUBCHEM_CONFORMER_RMSD>
1.2

> <PUBCHEM_CONFORMER_DIVERSEORDER>
1
24
29
27
20
16
44
33
19
39
25
13
31
35
3
15
12
38
14
42
26
18
28
32
30
5
9
40
17
10
2
22
4
37
23
36
34
6
43
11
41
21
7
8

> <PUBCHEM_MMFF94_PARTIAL_CHARGES>
21
1 -0.33
10 0.33
11 0.57
13 0.41
14 0.27
15 -0.14
16 -0.15
17 -0.15
18 -0.15
19 -0.15
2 -0.57
20 0.1
21 0.23
3 -0.73
31 0.37
4 -0.81
41 0.15
42 0.15
43 0.15
44 0.15
5 0.3

> <PUBCHEM_EFFECTIVE_ROTOR_COUNT>
8

> <PUBCHEM_PHARMACOPHORE_FEATURES>
6
1 2 acceptor
1 21 hydrophobe
1 3 donor
1 4 cation
5 5 6 7 8 9 rings
6 15 16 17 18 19 20 rings

> <PUBCHEM_HEAVY_ATOM_COUNT>
21

> <PUBCHEM_ATOM_DEF_STEREO_COUNT>
0

> <PUBCHEM_ATOM_UDEF_STEREO_COUNT>
1

> <PUBCHEM_BOND_DEF_STEREO_COUNT>
0

> <PUBCHEM_BOND_UDEF_STEREO_COUNT>
0

> <PUBCHEM_ISOTOPIC_ATOM_COUNT>
0

> <PUBCHEM_COMPONENT_COUNT>
1

> <PUBCHEM_CACTVS_TAUTO_COUNT>
2

> <PUBCHEM_CONFORMER_ID>
0109715100000001

> <PUBCHEM_MMFF94_ENERGY>
51.3541

> <PUBCHEM_FEATURE_SELFOVERLAP>
30.446

> <PUBCHEM_SHAPE_FINGERPRINT>
10087517 78 17976827485115107720
10615611 76 17559660751569686492
10670039 82 18267858394607397492
10759866 29 18412541020655530480
10871710 139 18265616472595519911
11045515 52 17830474786265087495
11370993 70 18266746963917711097
12077114 3 18410574015390607547
12107183 9 18197793291669323082
12596602 18 17346883316822133073
12633257 1 17986967434015636834
12788726 201 18195264234094063475
12892183 10 17917704716931364379
13103583 49 12390651161198372837
13134695 92 16970270124955197055
138480 1 17184471460844257851
13994607 96 18335707113546390885
14251764 38 18122628528910136165
14251764 75 18336254747420438817
14790565 3 18127686025311927940
14957384 54 18270690886140247794
17492 54 18190203268534479693
17834072 32 18336546109231808280
21524375 3 18115315595527162375
23227448 37 18410858754600374837
23559900 14 18041277777280306226
2838139 119 18339371879979954893
3117164 225 18267888223228887858
474 4 18119251920390395793
5048184 11 18411138039180986664
5104073 3 18271817791776203178
6327066 14 18411144653309550301
633830 44 18201723929842972530
7808743 9 18411137992094452648
9862522 239 18187933845884441942
9981440 41 18339929332929197347

> <PUBCHEM_SHAPE_MULTIPOLES>
420.19
10.52
4.07
1.2
7.76
0.24
0.44
-10.33
-0.48
-2.44
0.97
-0.12
0.29
-0.16

> <PUBCHEM_SHAPE_SELFOVERLAP>
845.977

> <PUBCHEM_SHAPE_VOLUME>
250.3

> <PUBCHEM_COORDINATE_TYPE>
2
5
10

$$$$

