582822
  -OEChem-06241222443D

 19 18  0     0  0  0  0  0  0999 V2000
   -1.0129    1.6105   -1.2132 F   0  0  0  0  0  0  0  0  0  0  0  0
    0.2426    0.0111   -1.9787 F   0  0  0  0  0  0  0  0  0  0  0  0
    0.2524    1.5927    1.1669 F   0  0  0  0  0  0  0  0  0  0  0  0
    1.5216    1.9194   -0.5638 F   0  0  0  0  0  0  0  0  0  0  0  0
   -2.1841   -0.7998   -1.3178 F   0  0  0  0  0  0  0  0  0  0  0  0
   -0.6590   -1.6940   -0.0563 F   0  0  0  0  0  0  0  0  0  0  0  0
    1.1163   -0.9759    1.3971 F   0  0  0  0  0  0  0  0  0  0  0  0
    2.6686    0.5388    1.4292 F   0  0  0  0  0  0  0  0  0  0  0  0
   -2.9277   -1.1249    1.2527 F   0  0  0  0  0  0  0  0  0  0  0  0
   -2.8646    0.9576    0.6225 F   0  0  0  0  0  0  0  0  0  0  0  0
    2.4549   -1.9905   -0.6960 O   0  0  0  0  0  0  0  0  0  0  0  0
   -0.3117    0.5025   -0.8357 C   0  0  0  0  0  0  0  0  0  0  0  0
    0.8045    0.9626    0.0936 C   0  0  0  0  0  0  0  0  0  0  0  0
   -1.3011   -0.5278   -0.3164 C   0  0  0  0  0  0  0  0  0  0  0  0
    1.7753   -0.0857    0.6110 C   0  0  0  0  0  0  0  0  0  0  0  0
   -2.0881   -0.1155    0.9051 C   0  0  0  0  0  0  0  0  0  0  0  0
    2.5131   -0.7811   -0.5003 C   0  0  0  0  0  0  0  0  0  0  0  0
   -1.4613    0.1035    1.7720 H   0  0  0  0  0  0  0  0  0  0  0  0
    3.1278   -0.1323   -1.1470 H   0  0  0  0  0  0  0  0  0  0  0  0
  1 12  1  0  0  0  0
  2 12  1  0  0  0  0
  3 13  1  0  0  0  0
  4 13  1  0  0  0  0
  5 14  1  0  0  0  0
  6 14  1  0  0  0  0
  7 15  1  0  0  0  0
  8 15  1  0  0  0  0
  9 16  1  0  0  0  0
 10 16  1  0  0  0  0
 11 17  2  0  0  0  0
 12 13  1  0  0  0  0
 12 14  1  0  0  0  0
 13 15  1  0  0  0  0
 14 16  1  0  0  0  0
 15 17  1  0  0  0  0
 16 18  1  0  0  0  0
 17 19  1  0  0  0  0
M  END
> <PUBCHEM_COMPOUND_CID>
582822

> <PUBCHEM_CONFORMER_RMSD>
0.6

> <PUBCHEM_CONFORMER_DIVERSEORDER>
1
23
51
42
10
18
45
35
40
22
5
14
50
36
2
30
3
32
41
28
15
24
19
49
25
46
33
7
27
12
16
44
11
4
47
26
48
39
17
34
9
21
29
13
38
8
20
37
6
31
43

> <PUBCHEM_MMFF94_PARTIAL_CHARGES>
18
1 -0.34
10 -0.34
11 -0.57
12 0.68
13 0.68
14 0.68
15 0.74
16 0.68
17 0.45
19 0.06
2 -0.34
3 -0.34
4 -0.34
5 -0.34
6 -0.34
7 -0.34
8 -0.34
9 -0.34

> <PUBCHEM_EFFECTIVE_ROTOR_COUNT>
5

> <PUBCHEM_PHARMACOPHORE_FEATURES>
1
1 11 acceptor

> <PUBCHEM_HEAVY_ATOM_COUNT>
17

> <PUBCHEM_ATOM_DEF_STEREO_COUNT>
0

> <PUBCHEM_ATOM_UDEF_STEREO_COUNT>
0

> <PUBCHEM_BOND_DEF_STEREO_COUNT>
0

> <PUBCHEM_BOND_UDEF_STEREO_COUNT>
0

> <PUBCHEM_ISOTOPIC_ATOM_COUNT>
0

> <PUBCHEM_COMPONENT_COUNT>
1

> <PUBCHEM_CACTVS_TAUTO_COUNT>
1

> <PUBCHEM_CONFORMER_ID>
0008E4A600000001

> <PUBCHEM_MMFF94_ENERGY>
8.688

> <PUBCHEM_FEATURE_SELFOVERLAP>
5.074

> <PUBCHEM_SHAPE_FINGERPRINT>
10353120 184 17917139597924064170
12423570 1 12863175345157076120
12524768 44 18200316511186488702
13299463 15 15913319208656185078
14115302 16 15984279528728545483
15775835 57 16298385721334011611
16945 1 18117276952081818425
18511873 20 18042115621555169059
20379382 53 18335980857339485516
20711983 138 18265613371571304818
21922407 69 16953968331136323628
230 275 14057262251612056995
23236772 104 15722519701931825656
23419403 2 14207269907153161572
2748010 2 18195825161122286030
353137 74 11815603151975776487
369184 2 17168153325186935531
5084963 1 17822021895087998087
54276843 12 17559935736333366807
598444 67 18051122898077389663

> <PUBCHEM_SHAPE_MULTIPOLES>
271.25
3.75
1.68
1.45
0.6
0.06
0.13
-0.95
-0.89
-0.41
0.13
0.09
0.05
0.32

> <PUBCHEM_SHAPE_SELFOVERLAP>
569.662

> <PUBCHEM_SHAPE_VOLUME>
150.8

> <PUBCHEM_COORDINATE_TYPE>
2
5
10

$$$$

