3873
  -OEChem-06251223443D

 59 61  0     1  0  0  0  0  0999 V2000
   -3.9369   -1.8118   -0.9878 S   0  0  2  0  0  0  0  0  0  0  0  0
    0.3749    2.6793   -0.2444 O   0  0  0  0  0  0  0  0  0  0  0  0
   -2.6265   -3.1785    2.2210 O   0  0  0  0  0  0  0  0  0  0  0  0
   -4.6448   -3.1327   -0.9880 O   0  0  0  0  0  0  0  0  0  0  0  0
   -3.8755    1.0282   -2.3328 O   0  0  0  0  0  0  0  0  0  0  0  0
    4.2805   -0.5825   -0.8341 N   0  0  0  0  0  0  0  0  0  0  0  0
    1.8934    3.2307    1.4217 N   0  0  0  0  0  0  0  0  0  0  0  0
   -4.8277    1.7578   -0.3421 N   0  0  0  0  0  0  0  0  0  0  0  0
    5.0807   -1.1785   -1.9133 C   0  0  0  0  0  0  0  0  0  0  0  0
    4.1927   -1.4849    0.3226 C   0  0  0  0  0  0  0  0  0  0  0  0
    4.4799   -2.5064   -2.3766 C   0  0  0  0  0  0  0  0  0  0  0  0
    3.5627   -2.8229   -0.0678 C   0  0  0  0  0  0  0  0  0  0  0  0
    4.3229   -3.4800   -1.2141 C   0  0  0  0  0  0  0  0  0  0  0  0
    4.8410    0.7081   -0.4348 C   0  0  0  0  0  0  0  0  0  0  0  0
    3.8088    1.5909    0.2150 C   0  0  0  0  0  0  0  0  0  0  0  0
    2.5429    1.7155   -0.3466 C   0  0  0  0  0  0  0  0  0  0  0  0
    4.1181    2.2854    1.3792 C   0  0  0  0  0  0  0  0  0  0  0  0
    1.6295    2.5405    0.2896 C   0  0  0  0  0  0  0  0  0  0  0  0
    3.1342    3.0849    1.9383 C   0  0  0  0  0  0  0  0  0  0  0  0
   -0.5238    3.5376    0.4478 C   0  0  0  0  0  0  0  0  0  0  0  0
   -1.8447    3.5123   -0.2493 C   0  0  0  0  0  0  0  0  0  0  0  0
   -3.4426   -1.4567    0.7154 C   0  0  0  0  0  0  0  0  0  0  0  0
   -5.2058   -0.5189   -1.0774 C   0  0  0  0  0  0  0  0  0  0  0  0
   -4.3069    3.0952   -0.3656 C   0  0  0  0  0  0  0  0  0  0  0  0
   -2.9866    3.1160    0.3321 C   0  0  0  0  0  0  0  0  0  0  0  0
   -2.3500   -2.3842    1.1539 C   0  0  0  0  0  0  0  0  0  0  0  0
   -4.5675    0.8233   -1.3371 C   0  0  0  0  0  0  0  0  0  0  0  0
   -1.0746   -2.6184    0.6950 C   0  0  0  0  0  0  0  0  0  0  0  0
   -0.5327   -3.6210    1.5340 C   0  0  0  0  0  0  0  0  0  0  0  0
   -1.5156   -3.9282    2.4459 C   0  0  0  0  0  0  0  0  0  0  0  0
    5.1069   -0.5022   -2.7764 H   0  0  0  0  0  0  0  0  0  0  0  0
    6.1179   -1.3350   -1.5887 H   0  0  0  0  0  0  0  0  0  0  0  0
    5.1858   -1.6641    0.7560 H   0  0  0  0  0  0  0  0  0  0  0  0
    3.5714   -1.0414    1.1098 H   0  0  0  0  0  0  0  0  0  0  0  0
    5.1177   -2.9522   -3.1482 H   0  0  0  0  0  0  0  0  0  0  0  0
    3.5000   -2.3256   -2.8365 H   0  0  0  0  0  0  0  0  0  0  0  0
    2.5182   -2.6639   -0.3651 H   0  0  0  0  0  0  0  0  0  0  0  0
    3.5492   -3.4932    0.7991 H   0  0  0  0  0  0  0  0  0  0  0  0
    3.7968   -4.3816   -1.5465 H   0  0  0  0  0  0  0  0  0  0  0  0
    5.3135   -3.7948   -0.8636 H   0  0  0  0  0  0  0  0  0  0  0  0
    5.1887    1.2639   -1.3168 H   0  0  0  0  0  0  0  0  0  0  0  0
    5.7219    0.5785    0.2080 H   0  0  0  0  0  0  0  0  0  0  0  0
    2.2685    1.1978   -1.2601 H   0  0  0  0  0  0  0  0  0  0  0  0
    5.0949    2.2127    1.8448 H   0  0  0  0  0  0  0  0  0  0  0  0
    3.3250    3.6474    2.8463 H   0  0  0  0  0  0  0  0  0  0  0  0
   -0.6345    3.2099    1.4892 H   0  0  0  0  0  0  0  0  0  0  0  0
   -0.1429    4.5661    0.4342 H   0  0  0  0  0  0  0  0  0  0  0  0
   -3.0784   -0.4265    0.7733 H   0  0  0  0  0  0  0  0  0  0  0  0
   -4.3156   -1.5568    1.3684 H   0  0  0  0  0  0  0  0  0  0  0  0
   -1.8577    3.8372   -1.2866 H   0  0  0  0  0  0  0  0  0  0  0  0
   -5.8180   -0.5318   -0.1718 H   0  0  0  0  0  0  0  0  0  0  0  0
   -5.8575   -0.7472   -1.9270 H   0  0  0  0  0  0  0  0  0  0  0  0
   -4.2321    3.4407   -1.4022 H   0  0  0  0  0  0  0  0  0  0  0  0
   -5.0167    3.7393    0.1626 H   0  0  0  0  0  0  0  0  0  0  0  0
   -2.9726    2.7987    1.3724 H   0  0  0  0  0  0  0  0  0  0  0  0
   -5.3943    1.4876    0.4565 H   0  0  0  0  0  0  0  0  0  0  0  0
   -0.5912   -2.1282   -0.1381 H   0  0  0  0  0  0  0  0  0  0  0  0
    0.4516   -4.0634    1.4811 H   0  0  0  0  0  0  0  0  0  0  0  0
   -1.5781   -4.6196    3.2735 H   0  0  0  0  0  0  0  0  0  0  0  0
  1  4  2  0  0  0  0
  1 22  1  0  0  0  0
  1 23  1  0  0  0  0
  2 18  1  0  0  0  0
  2 20  1  0  0  0  0
  3 26  1  0  0  0  0
  3 30  1  0  0  0  0
  5 27  2  0  0  0  0
  6  9  1  0  0  0  0
  6 10  1  0  0  0  0
  6 14  1  0  0  0  0
  7 18  2  0  0  0  0
  7 19  1  0  0  0  0
  8 24  1  0  0  0  0
  8 27  1  0  0  0  0
  8 56  1  0  0  0  0
  9 11  1  0  0  0  0
  9 31  1  0  0  0  0
  9 32  1  0  0  0  0
 10 12  1  0  0  0  0
 10 33  1  0  0  0  0
 10 34  1  0  0  0  0
 11 13  1  0  0  0  0
 11 35  1  0  0  0  0
 11 36  1  0  0  0  0
 12 13  1  0  0  0  0
 12 37  1  0  0  0  0
 12 38  1  0  0  0  0
 13 39  1  0  0  0  0
 13 40  1  0  0  0  0
 14 15  1  0  0  0  0
 14 41  1  0  0  0  0
 14 42  1  0  0  0  0
 15 16  2  0  0  0  0
 15 17  1  0  0  0  0
 16 18  1  0  0  0  0
 16 43  1  0  0  0  0
 17 19  2  0  0  0  0
 17 44  1  0  0  0  0
 19 45  1  0  0  0  0
 20 21  1  0  0  0  0
 20 46  1  0  0  0  0
 20 47  1  0  0  0  0
 21 25  2  0  0  0  0
 21 50  1  0  0  0  0
 22 26  1  0  0  0  0
 22 48  1  0  0  0  0
 22 49  1  0  0  0  0
 23 27  1  0  0  0  0
 23 51  1  0  0  0  0
 23 52  1  0  0  0  0
 24 25  1  0  0  0  0
 24 53  1  0  0  0  0
 24 54  1  0  0  0  0
 25 55  1  0  0  0  0
 26 28  2  0  0  0  0
 28 29  1  0  0  0  0
 28 57  1  0  0  0  0
 29 30  2  0  0  0  0
 29 58  1  0  0  0  0
 30 59  1  0  0  0  0
M  END
> <PUBCHEM_COMPOUND_CID>
3873

> <PUBCHEM_CONFORMER_RMSD>
1.2

> <PUBCHEM_CONFORMER_DIVERSEORDER>
1
169
36
90
28
138
253
12
177
230
203
50
113
227
246
242
238
291
81
276
74
79
115
217
116
281
119
49
4
160
162
251
190
30
117
266
270
150
103
47
249
69
220
174
219
269
88
149
89
45
265
26
128
272
68
215
179
175
260
209
80
293
210
56
197
32
234
137
19
78
261
264
46
167
283
54
114
11
252
105
183
243
231
205
10
31
290
176
134
93
159
108
237
107
187
2
92
157
25
130
182
195
168
262
294
135
277
225
151
152
102
204
7
66
131
295
18
126
156
250
120
127
170
94
278
20
236
198
171
186
51
194
67
87
244
95
48
133
273
101
164
240
275
201
75
202
136
214
140
254
192
284
64
72
289
212
84
40
24
118
73
256
196
263
146
9
178
255
241
268
248
17
148
166
147
76
161
216
286
155
104
22
39
23
287
223
257
144
111
34
70
163
154
14
153
285
279
61
99
235
59
91
85
191
6
233
258
112
53
158
62
226
224
247
282
37
245
58
181
143
200
188
165
184
145
218
5
82
16
142
109
123
60
208
222
96
27
77
288
221
239
86
180
100
228
232
207
141
280
83
229
55
52
129
29
259
271
132
193
125
98
43
21
38
172
97
189
274
44
206
35
13
106
63
15
173
267
33
41
3
110
211
213
65
139
42
57
199
185
124
8
121
122
292
71

> <PUBCHEM_MMFF94_PARTIAL_CHARGES>
36
1 0.11
10 0.27
14 0.41
15 -0.14
16 -0.15
17 -0.15
18 0.39
19 0.16
2 -0.36
20 0.42
21 -0.29
22 0.37
23 0.25
24 0.44
25 -0.29
26 -0.04
27 0.57
28 -0.15
29 -0.15
3 -0.28
30 -0.01
4 -0.5
43 0.15
44 0.15
45 0.15
5 -0.57
50 0.15
55 0.15
56 0.37
57 0.15
58 0.15
59 0.15
6 -0.81
7 -0.62
8 -0.73
9 0.27

> <PUBCHEM_EFFECTIVE_ROTOR_COUNT>
13.2

> <PUBCHEM_PHARMACOPHORE_FEATURES>
8
1 3 acceptor
1 4 acceptor
1 5 acceptor
1 6 cation
1 8 donor
5 3 26 28 29 30 rings
6 6 9 10 11 12 13 rings
6 7 15 16 17 18 19 rings

> <PUBCHEM_HEAVY_ATOM_COUNT>
30

> <PUBCHEM_ATOM_DEF_STEREO_COUNT>
0

> <PUBCHEM_ATOM_UDEF_STEREO_COUNT>
1

> <PUBCHEM_BOND_DEF_STEREO_COUNT>
0

> <PUBCHEM_BOND_UDEF_STEREO_COUNT>
1

> <PUBCHEM_ISOTOPIC_ATOM_COUNT>
0

> <PUBCHEM_COMPONENT_COUNT>
1

> <PUBCHEM_CACTVS_TAUTO_COUNT>
2

> <PUBCHEM_CONFORMER_ID>
00000F2100000001

> <PUBCHEM_MMFF94_ENERGY>
35.6906

> <PUBCHEM_FEATURE_SELFOVERLAP>
40.594

> <PUBCHEM_SHAPE_FINGERPRINT>
10049733 234 18265307600555256630
10864689 126 17615693268121574540
11285246 1 18264204888491581616
12120059 20 18262787593303790092
12128747 34 18409729568869354780
13165053 182 17484192550351999702
14251757 5 18057887931335968073
15160629 131 18117287956579965199
15274700 21 17916285274143952283
15322534 239 18269269235049224375
15351339 4 18270409424175039835
17627616 140 17767403856878832419
23572383 38 18265342702610952544
24204213 163 17701242648361476147
24941158 1 17168443566529612392
325973 47 18124314909021279925
354706 35 17189832151318137661
4073 2 18334299747142918056
437795 70 18045492273462484766
437795 96 18193561056296135986
44344687 77 17905906782069454831
4435113 14 18334564755108540436
463206 1 18119808259946309672
474144 1 17483120731554794691
508706 21 18058453118893464951
54324442 115 18410283722788425231
636783 18 16957852146242295886
9982175 69 17978521831652419175

> <PUBCHEM_SHAPE_MULTIPOLES>
582.82
13.05
6.95
2.1
0.6
0.31
-0.14
2.5
6.63
-1.13
-2.89
0.26
1.68
4.49

> <PUBCHEM_SHAPE_SELFOVERLAP>
1189.428

> <PUBCHEM_SHAPE_VOLUME>
338.5

> <PUBCHEM_COORDINATE_TYPE>
2
5
10

$$$$

