586194
  -OEChem-06241222452D

 19 19  0     0  0  0  0  0  0999 V2000
    7.7496    1.1212    0.0000 F   0  0  0  0  0  0  0  0  0  0  0  0
    7.6756   -0.2911    0.0000 F   0  0  0  0  0  0  0  0  0  0  0  0
    6.3373    1.1952    0.0000 F   0  0  0  0  0  0  0  0  0  0  0  0
    4.5032   -0.4958    0.0000 O   0  0  0  0  0  0  0  0  0  0  0  0
    6.4712   -1.1952    0.0000 O   0  0  0  0  0  0  0  0  0  0  0  0
    2.5352   -1.1952    0.0000 O   0  0  0  0  0  0  0  0  0  0  0  0
    5.3122    0.0920    0.0000 C   0  0  0  0  0  0  0  0  0  0  0  0
    3.6942    0.0920    0.0000 C   0  0  0  0  0  0  0  0  0  0  0  0
    5.0032    1.0430    0.0000 C   0  0  0  0  0  0  0  0  0  0  0  0
    4.0032    1.0430    0.0000 C   0  0  0  0  0  0  0  0  0  0  0  0
    6.2633   -0.2171    0.0000 C   0  0  0  0  0  0  0  0  0  0  0  0
    2.7431   -0.2171    0.0000 C   0  0  0  0  0  0  0  0  0  0  0  0
    7.0064    0.4521    0.0000 C   0  0  0  0  0  0  0  0  0  0  0  0
    2.0000    0.4521    0.0000 C   0  0  0  0  0  0  0  0  0  0  0  0
    5.3676    1.5446    0.0000 H   0  0  0  0  0  0  0  0  0  0  0  0
    3.6388    1.5446    0.0000 H   0  0  0  0  0  0  0  0  0  0  0  0
    2.4149    0.9128    0.0000 H   0  0  0  0  0  0  0  0  0  0  0  0
    1.5392    0.8669    0.0000 H   0  0  0  0  0  0  0  0  0  0  0  0
    1.5851   -0.0087    0.0000 H   0  0  0  0  0  0  0  0  0  0  0  0
  1 13  1  0  0  0  0
  2 13  1  0  0  0  0
  3 13  1  0  0  0  0
  4  7  1  0  0  0  0
  4  8  1  0  0  0  0
  5 11  2  0  0  0  0
  6 12  2  0  0  0  0
  7  9  2  0  0  0  0
  7 11  1  0  0  0  0
  8 10  2  0  0  0  0
  8 12  1  0  0  0  0
  9 10  1  0  0  0  0
  9 15  1  0  0  0  0
 10 16  1  0  0  0  0
 11 13  1  0  0  0  0
 12 14  1  0  0  0  0
 14 17  1  0  0  0  0
 14 18  1  0  0  0  0
 14 19  1  0  0  0  0
M  END
> <PUBCHEM_COMPOUND_CID>
586194

> <PUBCHEM_COMPOUND_CANONICALIZED>
1

> <PUBCHEM_CACTVS_COMPLEXITY>
259

> <PUBCHEM_CACTVS_HBOND_ACCEPTOR>
6

> <PUBCHEM_CACTVS_HBOND_DONOR>
0

> <PUBCHEM_CACTVS_ROTATABLE_BOND>
2

> <PUBCHEM_CACTVS_SUBSKEYS>
AAADcYBwMYAAAAAAAAAAAAAAAAAAASAAAAAAAAAAAAAAAAABgAAAGwAAAAAACASAkBAyBIAABECIAKBSAAICCAAkIAAIiAFGCMgMJjKENB6CGSCkwBEIqYeIzoDgAAAAAAAAAAAAAAAAAAAAAAAAAAAAAA==

> <PUBCHEM_IUPAC_OPENEYE_NAME>
1-(5-acetyl-2-furyl)-2,2,2-trifluoro-ethanone

> <PUBCHEM_IUPAC_CAS_NAME>
1-(5-acetyl-2-furanyl)-2,2,2-trifluoroethanone

> <PUBCHEM_IUPAC_NAME>
1-(5-acetylfuran-2-yl)-2,2,2-trifluoroethanone

> <PUBCHEM_IUPAC_SYSTEMATIC_NAME>
1-(5-ethanoylfuran-2-yl)-2,2,2-tris(fluoranyl)ethanone

> <PUBCHEM_IUPAC_TRADITIONAL_NAME>
1-(5-acetyl-2-furyl)-2,2,2-trifluoro-ethanone

> <PUBCHEM_IUPAC_INCHI>
InChI=1S/C8H5F3O3/c1-4(12)5-2-3-6(14-5)7(13)8(9,10)11/h2-3H,1H3

> <PUBCHEM_IUPAC_INCHIKEY>
KYWCSBVUFZPBQD-UHFFFAOYSA-N

> <PUBCHEM_XLOGP3_AA>
2.1

> <PUBCHEM_EXACT_MASS>
206.019079

> <PUBCHEM_MOLECULAR_FORMULA>
C8H5F3O3

> <PUBCHEM_MOLECULAR_WEIGHT>
206.11871

> <PUBCHEM_OPENEYE_CAN_SMILES>
CC(=O)C1=CC=C(O1)C(=O)C(F)(F)F

> <PUBCHEM_OPENEYE_ISO_SMILES>
CC(=O)C1=CC=C(O1)C(=O)C(F)(F)F

> <PUBCHEM_CACTVS_TPSA>
47.3

> <PUBCHEM_MONOISOTOPIC_WEIGHT>
206.019079

> <PUBCHEM_TOTAL_CHARGE>
0

> <PUBCHEM_HEAVY_ATOM_COUNT>
14

> <PUBCHEM_ATOM_DEF_STEREO_COUNT>
0

> <PUBCHEM_ATOM_UDEF_STEREO_COUNT>
0

> <PUBCHEM_BOND_DEF_STEREO_COUNT>
0

> <PUBCHEM_BOND_UDEF_STEREO_COUNT>
0

> <PUBCHEM_ISOTOPIC_ATOM_COUNT>
0

> <PUBCHEM_COMPONENT_COUNT>
1

> <PUBCHEM_CACTVS_TAUTO_COUNT>
2

> <PUBCHEM_COORDINATE_TYPE>
1
5
255

> <PUBCHEM_BONDANNOTATIONS>
4  7  8
4  8  8
7  9  8
8  10  8
9  10  8

$$$$

