51091010
  -OEChem-06241223012D

 39 41  0     0  0  0  0  0  0999 V2000
    4.9889   -0.7296    0.0000 S   0  0  0  0  0  0  0  0  0  0  0  0
    9.2136    1.0458    0.0000 O   0  0  0  0  0  0  0  0  0  0  0  0
    3.7320   -1.9849    0.0000 N   0  0  0  0  0  0  0  0  0  0  0  0
    5.2619   -2.4849    0.0000 N   0  0  0  0  0  0  0  0  0  0  0  0
    8.8564    2.7406    0.0000 N   0  0  0  0  0  0  0  0  0  0  0  0
    6.2781    0.4271    0.0000 C   0  0  0  0  0  0  0  0  0  0  0  0
    5.9674   -0.5234    0.0000 C   0  0  0  0  0  0  0  0  0  0  0  0
    3.7320   -2.9849    0.0000 C   0  0  0  0  0  0  0  0  0  0  0  0
    4.6783   -1.6802    0.0000 C   0  0  0  0  0  0  0  0  0  0  0  0
    7.5673    1.5838    0.0000 C   0  0  0  0  0  0  0  0  0  0  0  0
    7.2566    0.6333    0.0000 C   0  0  0  0  0  0  0  0  0  0  0  0
    5.6103    1.1714    0.0000 C   0  0  0  0  0  0  0  0  0  0  0  0
    2.8660   -1.4849    0.0000 C   0  0  0  0  0  0  0  0  0  0  0  0
    4.6783   -3.2896    0.0000 C   0  0  0  0  0  0  0  0  0  0  0  0
    6.8994    2.3282    0.0000 C   0  0  0  0  0  0  0  0  0  0  0  0
    2.8660   -3.4849    0.0000 C   0  0  0  0  0  0  0  0  0  0  0  0
    8.5458    1.7901    0.0000 C   0  0  0  0  0  0  0  0  0  0  0  0
    5.9209    2.1219    0.0000 C   0  0  0  0  0  0  0  0  0  0  0  0
    2.0000   -1.9849    0.0000 C   0  0  0  0  0  0  0  0  0  0  0  0
    2.0000   -2.9849    0.0000 C   0  0  0  0  0  0  0  0  0  0  0  0
    9.8349    2.9468    0.0000 C   0  0  0  0  0  0  0  0  0  0  0  0
    8.1886    3.4849    0.0000 C   0  0  0  0  0  0  0  0  0  0  0  0
    5.9880   -1.1431    0.0000 H   0  0  0  0  0  0  0  0  0  0  0  0
    6.5812   -0.6108    0.0000 H   0  0  0  0  0  0  0  0  0  0  0  0
    7.6707    0.1719    0.0000 H   0  0  0  0  0  0  0  0  0  0  0  0
    5.0036    1.0436    0.0000 H   0  0  0  0  0  0  0  0  0  0  0  0
    2.8660   -0.8649    0.0000 H   0  0  0  0  0  0  0  0  0  0  0  0
    4.8709   -3.8789    0.0000 H   0  0  0  0  0  0  0  0  0  0  0  0
    7.0920    2.9175    0.0000 H   0  0  0  0  0  0  0  0  0  0  0  0
    2.8660   -4.1049    0.0000 H   0  0  0  0  0  0  0  0  0  0  0  0
    5.5069    2.5834    0.0000 H   0  0  0  0  0  0  0  0  0  0  0  0
    1.4631   -1.6749    0.0000 H   0  0  0  0  0  0  0  0  0  0  0  0
    1.4631   -3.2949    0.0000 H   0  0  0  0  0  0  0  0  0  0  0  0
    9.9628    2.3401    0.0000 H   0  0  0  0  0  0  0  0  0  0  0  0
    8.6501    3.8990    0.0000 H   0  0  0  0  0  0  0  0  0  0  0  0
    7.7745    3.9464    0.0000 H   0  0  0  0  0  0  0  0  0  0  0  0
    7.7271    3.0708    0.0000 H   0  0  0  0  0  0  0  0  0  0  0  0
   10.4416    3.0747    0.0000 H   0  0  0  0  0  0  0  0  0  0  0  0
    9.7071    3.5535    0.0000 H   0  0  0  0  0  0  0  0  0  0  0  0
  1  7  1  0  0  0  0
  1  9  1  0  0  0  0
  2 17  2  0  0  0  0
  3  8  1  0  0  0  0
  3  9  1  0  0  0  0
  3 13  1  0  0  0  0
  4  9  2  0  0  0  0
  4 14  1  0  0  0  0
  5 17  1  0  0  0  0
  5 21  1  0  0  0  0
  5 22  1  0  0  0  0
  6  7  1  0  0  0  0
  6 11  2  0  0  0  0
  6 12  1  0  0  0  0
  7 23  1  0  0  0  0
  7 24  1  0  0  0  0
  8 14  2  0  0  0  0
  8 16  1  0  0  0  0
 10 11  1  0  0  0  0
 10 15  2  0  0  0  0
 10 17  1  0  0  0  0
 11 25  1  0  0  0  0
 12 18  2  0  0  0  0
 12 26  1  0  0  0  0
 13 19  2  0  0  0  0
 13 27  1  0  0  0  0
 14 28  1  0  0  0  0
 15 18  1  0  0  0  0
 15 29  1  0  0  0  0
 16 20  2  0  0  0  0
 16 30  1  0  0  0  0
 18 31  1  0  0  0  0
 19 20  1  0  0  0  0
 19 32  1  0  0  0  0
 20 33  1  0  0  0  0
 21 34  1  0  0  0  0
 21 38  1  0  0  0  0
 21 39  1  0  0  0  0
 22 35  1  0  0  0  0
 22 36  1  0  0  0  0
 22 37  1  0  0  0  0
M  END
> <PUBCHEM_COMPOUND_CID>
51091010

> <PUBCHEM_COMPOUND_CANONICALIZED>
1

> <PUBCHEM_CACTVS_COMPLEXITY>
390

> <PUBCHEM_CACTVS_HBOND_ACCEPTOR>
3

> <PUBCHEM_CACTVS_HBOND_DONOR>
0

> <PUBCHEM_CACTVS_ROTATABLE_BOND>
4

> <PUBCHEM_CACTVS_SUBSKEYS>
AAADceB7IABAAAAAAAAAAAAAAAAAAWAAAAA8QAAAAAAAAFgB8AAAHgQAAAAADAjF3gS/0LcMGAioAzV3dACC0C11ErAJ2CE4dNiIaPLgnZGUIQhoggLIyacYiECOAAACAAAAAAAAAAQAAAAAAAAAAAAAAA==

> <PUBCHEM_IUPAC_OPENEYE_NAME>
3-(imidazo[1,5-a]pyridin-3-ylsulfanylmethyl)-N,N-dimethyl-benzamide

> <PUBCHEM_IUPAC_CAS_NAME>
3-[(3-imidazo[1,5-a]pyridinylthio)methyl]-N,N-dimethylbenzamide

> <PUBCHEM_IUPAC_NAME>
3-(imidazo[1,5-a]pyridin-3-ylsulfanylmethyl)-N,N-dimethylbenzamide

> <PUBCHEM_IUPAC_SYSTEMATIC_NAME>
3-(imidazo[1,5-a]pyridin-3-ylsulfanylmethyl)-N,N-dimethyl-benzamide

> <PUBCHEM_IUPAC_TRADITIONAL_NAME>
3-[(imidazo[1,5-a]pyridin-3-ylthio)methyl]-N,N-dimethyl-benzamide

> <PUBCHEM_IUPAC_INCHI>
InChI=1S/C17H17N3OS/c1-19(2)16(21)14-7-5-6-13(10-14)12-22-17-18-11-15-8-3-4-9-20(15)17/h3-11H,12H2,1-2H3

> <PUBCHEM_IUPAC_INCHIKEY>
ACPBKEDQTJEQSS-UHFFFAOYSA-N

> <PUBCHEM_XLOGP3_AA>
3.6

> <PUBCHEM_EXACT_MASS>
311.109233

> <PUBCHEM_MOLECULAR_FORMULA>
C17H17N3OS

> <PUBCHEM_MOLECULAR_WEIGHT>
311.40138

> <PUBCHEM_OPENEYE_CAN_SMILES>
CN(C)C(=O)C1=CC(=CC=C1)CSC2=NC=C3N2C=CC=C3

> <PUBCHEM_OPENEYE_ISO_SMILES>
CN(C)C(=O)C1=CC(=CC=C1)CSC2=NC=C3N2C=CC=C3

> <PUBCHEM_CACTVS_TPSA>
62.9

> <PUBCHEM_MONOISOTOPIC_WEIGHT>
311.109233

> <PUBCHEM_TOTAL_CHARGE>
0

> <PUBCHEM_HEAVY_ATOM_COUNT>
22

> <PUBCHEM_ATOM_DEF_STEREO_COUNT>
0

> <PUBCHEM_ATOM_UDEF_STEREO_COUNT>
0

> <PUBCHEM_BOND_DEF_STEREO_COUNT>
0

> <PUBCHEM_BOND_UDEF_STEREO_COUNT>
0

> <PUBCHEM_ISOTOPIC_ATOM_COUNT>
0

> <PUBCHEM_COMPONENT_COUNT>
1

> <PUBCHEM_CACTVS_TAUTO_COUNT>
1

> <PUBCHEM_COORDINATE_TYPE>
1
5
255

> <PUBCHEM_BONDANNOTATIONS>
10  11  8
10  15  8
12  18  8
13  19  8
15  18  8
16  20  8
19  20  8
3  13  8
3  8  8
3  9  8
4  14  8
4  9  8
6  11  8
6  12  8
8  14  8
8  16  8

$$$$

