9147
  -OEChem-06261203272D

 25 28  0     0  0  0  0  0  0999 V2000
    4.5763   -0.2423    0.0000 C   0  0  0  0  0  0  0  0  0  0  0  0
    3.7102    0.2577    0.0000 C   0  0  0  0  0  0  0  0  0  0  0  0
    3.3784   -1.3172    0.0000 C   0  0  0  0  0  0  0  0  0  0  0  0
    2.9732   -0.4094    0.0000 C   0  0  0  0  0  0  0  0  0  0  0  0
    4.3671   -1.2141    0.0000 C   0  0  0  0  0  0  0  0  0  0  0  0
    3.7102    1.2577    0.0000 C   0  0  0  0  0  0  0  0  0  0  0  0
    5.4423    0.2577    0.0000 C   0  0  0  0  0  0  0  0  0  0  0  0
    2.0900    0.0334    0.0000 C   0  0  0  0  0  0  0  0  0  0  0  0
    5.1922   -1.7577    0.0000 C   0  0  0  0  0  0  0  0  0  0  0  0
    4.5763    1.7577    0.0000 C   0  0  0  0  0  0  0  0  0  0  0  0
    5.4423    1.2577    0.0000 C   0  0  0  0  0  0  0  0  0  0  0  0
    2.7883    1.6130    0.0000 C   0  0  0  0  0  0  0  0  0  0  0  0
    6.2110   -0.3631    0.0000 C   0  0  0  0  0  0  0  0  0  0  0  0
    6.0893   -1.3436    0.0000 C   0  0  0  0  0  0  0  0  0  0  0  0
    2.0000    1.0173    0.0000 C   0  0  0  0  0  0  0  0  0  0  0  0
    2.7888   -1.5090    0.0000 H   0  0  0  0  0  0  0  0  0  0  0  0
    3.5071   -1.9237    0.0000 H   0  0  0  0  0  0  0  0  0  0  0  0
    1.5778   -0.3160    0.0000 H   0  0  0  0  0  0  0  0  0  0  0  0
    5.1457   -2.3759    0.0000 H   0  0  0  0  0  0  0  0  0  0  0  0
    4.5763    2.3777    0.0000 H   0  0  0  0  0  0  0  0  0  0  0  0
    5.9792    1.5677    0.0000 H   0  0  0  0  0  0  0  0  0  0  0  0
    2.7020    2.2269    0.0000 H   0  0  0  0  0  0  0  0  0  0  0  0
    6.7858   -0.1309    0.0000 H   0  0  0  0  0  0  0  0  0  0  0  0
    1.4329    1.2680    0.0000 H   0  0  0  0  0  0  0  0  0  0  0  0
    6.5899   -1.7094    0.0000 H   0  0  0  0  0  0  0  0  0  0  0  0
  1  2  1  0  0  0  0
  1  5  1  0  0  0  0
  1  7  2  0  0  0  0
  2  4  1  0  0  0  0
  2  6  2  0  0  0  0
  3  4  1  0  0  0  0
  3  5  1  0  0  0  0
  3 16  1  0  0  0  0
  3 17  1  0  0  0  0
  4  8  2  0  0  0  0
  5  9  2  0  0  0  0
  6 10  1  0  0  0  0
  6 12  1  0  0  0  0
  7 11  1  0  0  0  0
  7 13  1  0  0  0  0
  8 15  1  0  0  0  0
  8 18  1  0  0  0  0
  9 14  1  0  0  0  0
  9 19  1  0  0  0  0
 10 11  2  0  0  0  0
 10 20  1  0  0  0  0
 11 21  1  0  0  0  0
 12 15  2  0  0  0  0
 12 22  1  0  0  0  0
 13 14  2  0  0  0  0
 13 23  1  0  0  0  0
 14 25  1  0  0  0  0
 15 24  1  0  0  0  0
M  END
> <PUBCHEM_COMPOUND_CID>
9147

> <PUBCHEM_COMPOUND_CANONICALIZED>
1

> <PUBCHEM_CACTVS_COMPLEXITY>
231

> <PUBCHEM_CACTVS_HBOND_ACCEPTOR>
0

> <PUBCHEM_CACTVS_HBOND_DONOR>
0

> <PUBCHEM_CACTVS_ROTATABLE_BOND>
0

> <PUBCHEM_CACTVS_SUBSKEYS>
AAADccBwAAAAAAAAAAAAAAAAAAAAAYAAAAAwYMAAAAAAAGDBVAAAGAAAAAAADACAGAAwAMAAAACAAiBCAAACAAAgAAAIiAAAAIgIICKAERCAIAAggAAIiAcAgMAOwAACAAAQAACAAAQAACAAAQAACAAAAA==

> <PUBCHEM_IUPAC_INCHI>
InChI=1S/C15H10/c1-3-10-7-8-11-4-2-6-13-9-12(5-1)14(10)15(11)13/h1-8H,9H2

> <PUBCHEM_IUPAC_INCHIKEY>
RKZDZWJDQTZDLD-UHFFFAOYSA-N

> <PUBCHEM_XLOGP3_AA>
4.4

> <PUBCHEM_EXACT_MASS>
190.07825

> <PUBCHEM_MOLECULAR_FORMULA>
C15H10

> <PUBCHEM_MOLECULAR_WEIGHT>
190.2399

> <PUBCHEM_OPENEYE_CAN_SMILES>
C1C2=CC=CC3=C2C4=C(C=CC=C41)C=C3

> <PUBCHEM_OPENEYE_ISO_SMILES>
C1C2=CC=CC3=C2C4=C(C=CC=C41)C=C3

> <PUBCHEM_CACTVS_TPSA>
0

> <PUBCHEM_MONOISOTOPIC_WEIGHT>
190.07825

> <PUBCHEM_TOTAL_CHARGE>
0

> <PUBCHEM_HEAVY_ATOM_COUNT>
15

> <PUBCHEM_ATOM_DEF_STEREO_COUNT>
0

> <PUBCHEM_ATOM_UDEF_STEREO_COUNT>
0

> <PUBCHEM_BOND_DEF_STEREO_COUNT>
0

> <PUBCHEM_BOND_UDEF_STEREO_COUNT>
0

> <PUBCHEM_ISOTOPIC_ATOM_COUNT>
0

> <PUBCHEM_COMPONENT_COUNT>
1

> <PUBCHEM_CACTVS_TAUTO_COUNT>
1

> <PUBCHEM_COORDINATE_TYPE>
1
5
255

> <PUBCHEM_BONDANNOTATIONS>
1  2  8
1  5  8
1  7  8
10  11  8
12  15  8
13  14  8
2  4  8
2  6  8
4  8  8
5  9  8
6  10  8
6  12  8
7  11  8
7  13  8
8  15  8
9  14  8

$$$$

