583021
  -OEChem-06241222442D

 45 47  0     1  0  0  0  0  0999 V2000
    5.6742   -0.2638    0.0000 O   0  0  0  0  0  0  0  0  0  0  0  0
    4.0012    0.1845    0.0000 O   0  0  0  0  0  0  0  0  0  0  0  0
    7.6651    1.7021    0.0000 C   0  0  3  0  0  0  0  0  0  0  0  0
    7.1873    3.6506    0.0000 C   0  0  0  0  0  0  0  0  0  0  0  0
    7.9239    2.6680    0.0000 C   0  0  3  0  0  0  0  0  0  0  0  0
    5.9330    0.7021    0.0000 C   0  0  3  0  0  0  0  0  0  0  0  0
    9.4971    0.9433    0.0000 C   0  0  0  0  0  0  0  0  0  0  0  0
    5.4330    1.5681    0.0000 C   0  0  0  0  0  0  0  0  0  0  0  0
    9.7559    1.9092    0.0000 C   0  0  0  0  0  0  0  0  0  0  0  0
    7.4063    0.7362    0.0000 C   0  0  0  0  0  0  0  0  0  0  0  0
    7.2918    4.6452    0.0000 C   0  0  0  0  0  0  0  0  0  0  0  0
    6.2738    4.0574    0.0000 C   0  0  0  0  0  0  0  0  0  0  0  0
    4.7083   -0.5226    0.0000 C   0  0  0  0  0  0  0  0  0  0  0  0
    4.4495   -1.4886    0.0000 C   0  0  0  0  0  0  0  0  0  0  0  0
    3.4836   -1.7474    0.0000 C   0  0  0  0  0  0  0  0  0  0  0  0
    3.2247   -2.7133    0.0000 C   0  0  0  0  0  0  0  0  0  0  0  0
    2.2588   -2.9721    0.0000 C   0  0  0  0  0  0  0  0  0  0  0  0
    3.9318   -3.4204    0.0000 C   0  0  0  0  0  0  0  0  0  0  0  0
    2.0000   -3.9381    0.0000 C   0  0  0  0  0  0  0  0  0  0  0  0
    3.6730   -4.3864    0.0000 C   0  0  0  0  0  0  0  0  0  0  0  0
    2.7071   -4.6452    0.0000 C   0  0  0  0  0  0  0  0  0  0  0  0
    7.9338    1.8181    0.0000 H   0  0  0  0  0  0  0  0  0  0  0  0
    6.6074    0.1847    0.0000 H   0  0  0  0  0  0  0  0  0  0  0  0
    9.2850    0.3607    0.0000 H   0  0  0  0  0  0  0  0  0  0  0  0
   10.0884    0.7568    0.0000 H   0  0  0  0  0  0  0  0  0  0  0  0
    5.1624    2.1259    0.0000 H   0  0  0  0  0  0  0  0  0  0  0  0
    4.8853    1.2776    0.0000 H   0  0  0  0  0  0  0  0  0  0  0  0
   10.3472    1.7228    0.0000 H   0  0  0  0  0  0  0  0  0  0  0  0
    9.9679    2.4918    0.0000 H   0  0  0  0  0  0  0  0  0  0  0  0
    6.8074    0.8966    0.0000 H   0  0  0  0  0  0  0  0  0  0  0  0
    7.2458    0.1373    0.0000 H   0  0  0  0  0  0  0  0  0  0  0  0
    8.0052    0.5757    0.0000 H   0  0  0  0  0  0  0  0  0  0  0  0
    7.9084    4.5804    0.0000 H   0  0  0  0  0  0  0  0  0  0  0  0
    7.3566    5.2618    0.0000 H   0  0  0  0  0  0  0  0  0  0  0  0
    6.6752    4.7100    0.0000 H   0  0  0  0  0  0  0  0  0  0  0  0
    6.5259    4.6238    0.0000 H   0  0  0  0  0  0  0  0  0  0  0  0
    5.7074    4.3096    0.0000 H   0  0  0  0  0  0  0  0  0  0  0  0
    6.0216    3.4910    0.0000 H   0  0  0  0  0  0  0  0  0  0  0  0
    4.8879   -1.9270    0.0000 H   0  0  0  0  0  0  0  0  0  0  0  0
    3.0452   -1.3090    0.0000 H   0  0  0  0  0  0  0  0  0  0  0  0
    1.8204   -2.5337    0.0000 H   0  0  0  0  0  0  0  0  0  0  0  0
    4.5307   -3.2600    0.0000 H   0  0  0  0  0  0  0  0  0  0  0  0
    1.4011   -4.0985    0.0000 H   0  0  0  0  0  0  0  0  0  0  0  0
    4.1114   -4.8248    0.0000 H   0  0  0  0  0  0  0  0  0  0  0  0
    2.5466   -5.2440    0.0000 H   0  0  0  0  0  0  0  0  0  0  0  0
  1  6  1  0  0  0  0
  1 13  1  0  0  0  0
  2 13  2  0  0  0  0
  3  4  1  0  0  0  0
  3  6  1  0  0  0  0
  3  7  1  0  0  0  0
  3 10  1  0  0  0  0
  4  5  1  0  0  0  0
  4 11  1  0  0  0  0
  4 12  1  0  0  0  0
  5  8  1  0  0  0  0
  5  9  1  0  0  0  0
  5 22  1  0  0  0  0
  6  8  1  0  0  0  0
  6 23  1  0  0  0  0
  7  9  1  0  0  0  0
  7 24  1  0  0  0  0
  7 25  1  0  0  0  0
  8 26  1  0  0  0  0
  8 27  1  0  0  0  0
  9 28  1  0  0  0  0
  9 29  1  0  0  0  0
 10 30  1  0  0  0  0
 10 31  1  0  0  0  0
 10 32  1  0  0  0  0
 11 33  1  0  0  0  0
 11 34  1  0  0  0  0
 11 35  1  0  0  0  0
 12 36  1  0  0  0  0
 12 37  1  0  0  0  0
 12 38  1  0  0  0  0
 13 14  1  0  0  0  0
 14 15  2  3  0  0  0
 14 39  1  0  0  0  0
 15 16  1  0  0  0  0
 15 40  1  0  0  0  0
 16 17  2  0  0  0  0
 16 18  1  0  0  0  0
 17 19  1  0  0  0  0
 17 41  1  0  0  0  0
 18 20  2  0  0  0  0
 18 42  1  0  0  0  0
 19 21  2  0  0  0  0
 19 43  1  0  0  0  0
 20 21  1  0  0  0  0
 20 44  1  0  0  0  0
 21 45  1  0  0  0  0
M  END
> <PUBCHEM_COMPOUND_CID>
583021

> <PUBCHEM_COMPOUND_CANONICALIZED>
1

> <PUBCHEM_CACTVS_COMPLEXITY>
431

> <PUBCHEM_CACTVS_HBOND_ACCEPTOR>
2

> <PUBCHEM_CACTVS_HBOND_DONOR>
0

> <PUBCHEM_CACTVS_ROTATABLE_BOND>
4

> <PUBCHEM_CACTVS_SUBSKEYS>
AAADceB4MAAAAAAAAAAAAAAAAAAAAYMAAAAwYAAAAAAAAAABAAAAGgAAAAAADxSgmAIyCIAABACIAiDSCAACAAAgAAAIiAAAAMgIJCKAMRCCMAAkgAAIqYeAwPAPgAAAAAAAAACAAAIAABAAAYAADAAAAA==

> <PUBCHEM_IUPAC_OPENEYE_NAME>
(1,7,7-trimethylnorbornan-2-yl) 3-phenylprop-2-enoate

> <PUBCHEM_IUPAC_CAS_NAME>
3-phenyl-2-propenoic acid (4,7,7-trimethyl-3-bicyclo[2.2.1]heptanyl) ester

> <PUBCHEM_IUPAC_NAME>
(4,7,7-trimethyl-3-bicyclo[2.2.1]heptanyl) 3-phenylprop-2-enoate

> <PUBCHEM_IUPAC_SYSTEMATIC_NAME>
(4,7,7-trimethyl-3-bicyclo[2.2.1]heptanyl) 3-phenylprop-2-enoate

> <PUBCHEM_IUPAC_TRADITIONAL_NAME>
3-phenylacrylic acid 2-bornyl ester

> <PUBCHEM_IUPAC_INCHI>
InChI=1S/C19H24O2/c1-18(2)15-11-12-19(18,3)16(13-15)21-17(20)10-9-14-7-5-4-6-8-14/h4-10,15-16H,11-13H2,1-3H3

> <PUBCHEM_IUPAC_INCHIKEY>
ACTRLDZRLKIJEH-UHFFFAOYSA-N

> <PUBCHEM_XLOGP3_AA>
5.2

> <PUBCHEM_EXACT_MASS>
284.17763

> <PUBCHEM_MOLECULAR_FORMULA>
C19H24O2

> <PUBCHEM_MOLECULAR_WEIGHT>
284.39266

> <PUBCHEM_OPENEYE_CAN_SMILES>
CC1(C2CCC1(C(C2)OC(=O)C=CC3=CC=CC=C3)C)C

> <PUBCHEM_OPENEYE_ISO_SMILES>
CC1(C2CCC1(C(C2)OC(=O)C=CC3=CC=CC=C3)C)C

> <PUBCHEM_CACTVS_TPSA>
26.3

> <PUBCHEM_MONOISOTOPIC_WEIGHT>
284.17763

> <PUBCHEM_TOTAL_CHARGE>
0

> <PUBCHEM_HEAVY_ATOM_COUNT>
21

> <PUBCHEM_ATOM_DEF_STEREO_COUNT>
0

> <PUBCHEM_ATOM_UDEF_STEREO_COUNT>
3

> <PUBCHEM_BOND_DEF_STEREO_COUNT>
0

> <PUBCHEM_BOND_UDEF_STEREO_COUNT>
1

> <PUBCHEM_ISOTOPIC_ATOM_COUNT>
0

> <PUBCHEM_COMPONENT_COUNT>
1

> <PUBCHEM_CACTVS_TAUTO_COUNT>
1

> <PUBCHEM_COORDINATE_TYPE>
1
5
255

> <PUBCHEM_BONDANNOTATIONS>
14  15  1
16  17  8
16  18  8
17  19  8
18  20  8
19  21  8
20  21  8
3  10  3
5  22  3
6  23  3

$$$$

