47205032
  -OEChem-06241222573D

 33 34  0     1  0  0  0  0  0999 V2000
   -5.1661   -2.4481    0.3454 F   0  0  0  0  0  0  0  0  0  0  0  0
   -1.4866    1.5549   -0.4933 O   0  0  0  0  0  0  0  0  0  0  0  0
    0.9471    1.2885   -1.5493 O   0  0  0  0  0  0  0  0  0  0  0  0
    2.0053    1.4653    0.5099 N   0  0  0  0  0  0  0  0  0  0  0  0
    4.0529   -0.8745    1.1000 N   0  0  0  0  0  0  0  0  0  0  0  0
    4.3776   -2.1559    0.8573 N   0  0  0  0  0  0  0  0  0  0  0  0
   -0.4064    1.6361    0.4215 C   0  0  1  0  0  0  0  0  0  0  0  0
    3.3564    1.2872    0.0312 C   0  0  0  0  0  0  0  0  0  0  0  0
    0.9035    1.4505   -0.3316 C   0  0  0  0  0  0  0  0  0  0  0  0
    3.7473   -0.1614   -0.0219 C   0  0  0  0  0  0  0  0  0  0  0  0
   -0.4600    2.9951    1.1011 C   0  0  0  0  0  0  0  0  0  0  0  0
   -2.4044    0.5564   -0.2841 C   0  0  0  0  0  0  0  0  0  0  0  0
    3.8817   -1.0372   -1.0715 C   0  0  0  0  0  0  0  0  0  0  0  0
   -1.9988   -0.7782   -0.2993 C   0  0  0  0  0  0  0  0  0  0  0  0
   -3.7429    0.8760   -0.0559 C   0  0  0  0  0  0  0  0  0  0  0  0
    4.2711   -2.2493   -0.4708 C   0  0  0  0  0  0  0  0  0  0  0  0
   -2.9316   -1.7931   -0.0867 C   0  0  0  0  0  0  0  0  0  0  0  0
   -4.6758   -0.1389    0.1566 C   0  0  0  0  0  0  0  0  0  0  0  0
   -4.2702   -1.4735    0.1413 C   0  0  0  0  0  0  0  0  0  0  0  0
   -0.4655    0.8592    1.1961 H   0  0  0  0  0  0  0  0  0  0  0  0
    4.0207    1.8329    0.7099 H   0  0  0  0  0  0  0  0  0  0  0  0
    3.4478    1.7361   -0.9641 H   0  0  0  0  0  0  0  0  0  0  0  0
    1.8693    1.5545    1.5124 H   0  0  0  0  0  0  0  0  0  0  0  0
   -1.4382    3.1513    1.5691 H   0  0  0  0  0  0  0  0  0  0  0  0
    0.3090    3.1065    1.8710 H   0  0  0  0  0  0  0  0  0  0  0  0
   -0.3264    3.8011    0.3704 H   0  0  0  0  0  0  0  0  0  0  0  0
    3.7202   -0.8299   -2.1192 H   0  0  0  0  0  0  0  0  0  0  0  0
    4.0596   -0.5526    2.0599 H   0  0  0  0  0  0  0  0  0  0  0  0
   -0.9614   -1.0427   -0.4846 H   0  0  0  0  0  0  0  0  0  0  0  0
   -4.0641    1.9139   -0.0423 H   0  0  0  0  0  0  0  0  0  0  0  0
    4.4814   -3.1968   -0.9457 H   0  0  0  0  0  0  0  0  0  0  0  0
   -2.6166   -2.8323   -0.1006 H   0  0  0  0  0  0  0  0  0  0  0  0
   -5.7180    0.1096    0.3343 H   0  0  0  0  0  0  0  0  0  0  0  0
  1 19  1  0  0  0  0
  2  7  1  0  0  0  0
  2 12  1  0  0  0  0
  3  9  2  0  0  0  0
  4  8  1  0  0  0  0
  4  9  1  0  0  0  0
  4 23  1  0  0  0  0
  5  6  1  0  0  0  0
  5 10  1  0  0  0  0
  5 28  1  0  0  0  0
  6 16  2  0  0  0  0
  7  9  1  0  0  0  0
  7 11  1  0  0  0  0
  7 20  1  0  0  0  0
  8 10  1  0  0  0  0
  8 21  1  0  0  0  0
  8 22  1  0  0  0  0
 10 13  2  0  0  0  0
 11 24  1  0  0  0  0
 11 25  1  0  0  0  0
 11 26  1  0  0  0  0
 12 14  2  0  0  0  0
 12 15  1  0  0  0  0
 13 16  1  0  0  0  0
 13 27  1  0  0  0  0
 14 17  1  0  0  0  0
 14 29  1  0  0  0  0
 15 18  2  0  0  0  0
 15 30  1  0  0  0  0
 16 31  1  0  0  0  0
 17 19  2  0  0  0  0
 17 32  1  0  0  0  0
 18 19  1  0  0  0  0
 18 33  1  0  0  0  0
M  END
> <PUBCHEM_COMPOUND_CID>
47205032

> <PUBCHEM_CONFORMER_RMSD>
1

> <PUBCHEM_CONFORMER_DIVERSEORDER>
1
40
53
74
78
23
38
12
16
15
52
26
35
10
76
44
68
66
8
72
43
22
67
30
21
65
61
42
27
34
46
47
55
2
41
24
77
7
18
51
14
4
56
29
54
45
75
31
17
48
32
28
62
11
19
3
59
25
50
5
69
71
60
49
6
33
9
36
37
58
13
20
73
39
57
64
70
63
79

> <PUBCHEM_MMFF94_PARTIAL_CHARGES>
26
1 -0.19
10 -0.33
12 0.08
13 -0.15
14 -0.15
15 -0.15
16 0.14
17 -0.15
18 -0.15
19 0.19
2 -0.36
23 0.37
27 0.15
28 0.27
29 0.15
3 -0.57
30 0.15
31 0.15
32 0.15
33 0.15
4 -0.73
5 0.3
6 -0.71
7 0.34
8 0.48
9 0.57

> <PUBCHEM_EFFECTIVE_ROTOR_COUNT>
6

> <PUBCHEM_PHARMACOPHORE_FEATURES>
7
1 2 acceptor
1 3 acceptor
1 4 donor
1 5 donor
1 6 acceptor
5 5 6 10 13 16 rings
6 12 14 15 17 18 19 rings

> <PUBCHEM_HEAVY_ATOM_COUNT>
19

> <PUBCHEM_ATOM_DEF_STEREO_COUNT>
0

> <PUBCHEM_ATOM_UDEF_STEREO_COUNT>
1

> <PUBCHEM_BOND_DEF_STEREO_COUNT>
0

> <PUBCHEM_BOND_UDEF_STEREO_COUNT>
0

> <PUBCHEM_ISOTOPIC_ATOM_COUNT>
0

> <PUBCHEM_COMPONENT_COUNT>
1

> <PUBCHEM_CACTVS_TAUTO_COUNT>
4

> <PUBCHEM_CONFORMER_ID>
02D04AA800000001

> <PUBCHEM_MMFF94_ENERGY>
36.0711

> <PUBCHEM_FEATURE_SELFOVERLAP>
35.529

> <PUBCHEM_SHAPE_FINGERPRINT>
11796584 16 18341900735254128469
12553582 1 18114187402128603860
12596602 18 16443626770730797154
12670546 177 13254788036486563289
12824470 246 18411134766373631296
13255334 9 18412260623235803234
13533116 47 18192431875387700371
13551218 46 18409726228076277459
13955234 65 17904195928532018057
1420 369 18410571781859822938
14251740 57 18260542295232490422
14420673 8 18265607874039942175
14866123 147 17973999858513146201
15196674 1 18411419505372233055
15342168 16 8790889579382581067
15342816 4 17989210365164661704
15352361 1 18410012147768886154
15885798 251 18335419079790842729
1798214 55 9511460022219675270
1813 80 17704355450475632261
193927 3 18343293769157458563
19784866 135 18334015037997122945
20281475 54 18411696573707645565
20291156 8 18412265047141464088
20403669 9 18408884061591970695
20645477 70 18341895152023393052
21250096 35 18335421257344192225
21279426 13 18412833508155040079
22620623 9 17131005294103426109
235170 7 15123790695007622426
23559900 14 18408611374561712552
239999 70 18115016412896214876
2838139 119 10015569589764596346
3004659 81 18272087206141750574
314173 41 18410289199071635332
3421961 26 18262521381612727864
38570 142 13841133317663625562
43658 37 10375870762308793678
5104073 3 18260829310532111225
556388 4 18342461447814756698
7097593 13 18044101150544840085
7808743 9 9294415327796716638
79837 15 17320689887368710416
960060 61 17632289082167476614
9709674 26 18199746955779126939

> <PUBCHEM_SHAPE_MULTIPOLES>
357.06
11.07
2.96
0.97
0.06
0.18
0.07
-8.99
-0.98
-0.08
-0.58
-0.68
0.12
0.06

> <PUBCHEM_SHAPE_SELFOVERLAP>
752.13

> <PUBCHEM_SHAPE_VOLUME>
201.4

> <PUBCHEM_COORDINATE_TYPE>
2
5
10

$$$$

