14033
  -OEChem-06241222413D

 30 29  0     0  0  0  0  0  0999 V2000
    0.8971   -0.0403    0.8001 P   0  0  0  0  0  0  0  0  0  0  0  0
    0.9150   -1.6340    0.5175 O   0  0  0  0  0  0  0  0  0  0  0  0
    2.1657    0.5146   -0.0385 O   0  0  0  0  0  0  0  0  0  0  0  0
    0.9169    0.3089    2.2607 O   0  0  0  0  0  0  0  0  0  0  0  0
   -2.9838    1.3034   -1.2238 O   0  0  0  0  0  0  0  0  0  0  0  0
   -0.5342    0.5749   -0.0664 C   0  0  0  0  0  0  0  0  0  0  0  0
   -1.8419    0.0379    0.4927 C   0  0  0  0  0  0  0  0  0  0  0  0
   -3.0609    0.5523   -0.2527 C   0  0  0  0  0  0  0  0  0  0  0  0
    1.0070   -2.1378   -0.8031 C   0  0  0  0  0  0  0  0  0  0  0  0
    2.3339    1.9133   -0.1869 C   0  0  0  0  0  0  0  0  0  0  0  0
   -4.3975    0.0815    0.2590 C   0  0  0  0  0  0  0  0  0  0  0  0
    1.0018   -3.6509   -0.7551 C   0  0  0  0  0  0  0  0  0  0  0  0
    3.5811    2.1761   -1.0035 C   0  0  0  0  0  0  0  0  0  0  0  0
   -0.4568    0.3533   -1.1360 H   0  0  0  0  0  0  0  0  0  0  0  0
   -0.5501    1.6678    0.0159 H   0  0  0  0  0  0  0  0  0  0  0  0
   -1.8470   -1.0558    0.4369 H   0  0  0  0  0  0  0  0  0  0  0  0
   -1.9372    0.3237    1.5457 H   0  0  0  0  0  0  0  0  0  0  0  0
    0.1559   -1.7906   -1.3942 H   0  0  0  0  0  0  0  0  0  0  0  0
    1.9311   -1.7813   -1.2676 H   0  0  0  0  0  0  0  0  0  0  0  0
    1.4703    2.3405   -0.7030 H   0  0  0  0  0  0  0  0  0  0  0  0
    2.4210    2.3735    0.8022 H   0  0  0  0  0  0  0  0  0  0  0  0
   -5.1984    0.5168   -0.3452 H   0  0  0  0  0  0  0  0  0  0  0  0
   -4.4535   -1.0075    0.1886 H   0  0  0  0  0  0  0  0  0  0  0  0
   -4.5255    0.4001    1.2964 H   0  0  0  0  0  0  0  0  0  0  0  0
    1.0722   -4.0742   -1.7610 H   0  0  0  0  0  0  0  0  0  0  0  0
    1.8409   -4.0206   -0.1565 H   0  0  0  0  0  0  0  0  0  0  0  0
    0.0859   -4.0183   -0.2804 H   0  0  0  0  0  0  0  0  0  0  0  0
    3.7417    3.2495   -1.1376 H   0  0  0  0  0  0  0  0  0  0  0  0
    4.4605    1.7458   -0.5132 H   0  0  0  0  0  0  0  0  0  0  0  0
    3.5035    1.7044   -1.9886 H   0  0  0  0  0  0  0  0  0  0  0  0
  1  2  1  0  0  0  0
  1  3  1  0  0  0  0
  1  4  2  0  0  0  0
  1  6  1  0  0  0  0
  2  9  1  0  0  0  0
  3 10  1  0  0  0  0
  5  8  2  0  0  0  0
  6  7  1  0  0  0  0
  6 14  1  0  0  0  0
  6 15  1  0  0  0  0
  7  8  1  0  0  0  0
  7 16  1  0  0  0  0
  7 17  1  0  0  0  0
  8 11  1  0  0  0  0
  9 12  1  0  0  0  0
  9 18  1  0  0  0  0
  9 19  1  0  0  0  0
 10 13  1  0  0  0  0
 10 20  1  0  0  0  0
 10 21  1  0  0  0  0
 11 22  1  0  0  0  0
 11 23  1  0  0  0  0
 11 24  1  0  0  0  0
 12 25  1  0  0  0  0
 12 26  1  0  0  0  0
 12 27  1  0  0  0  0
 13 28  1  0  0  0  0
 13 29  1  0  0  0  0
 13 30  1  0  0  0  0
M  END
> <PUBCHEM_COMPOUND_CID>
14033

> <PUBCHEM_CONFORMER_RMSD>
0.8

> <PUBCHEM_CONFORMER_DIVERSEORDER>
1
88
48
29
23
45
22
86
57
80
77
42
47
58
87
61
44
13
63
21
74
60
73
49
81
43
25
30
76
64
84
17
52
78
83
36
66
16
50
55
62
24
59
54
72
65
33
20
70
75
82
34
89
11
19
38
18
51
53
79
27
85
5
46
8
56
10
32
7
71
26
90
12
40
4
41
2
31
9
39
68
6
67
28
69
15
37
3
35
14

> <PUBCHEM_MMFF94_PARTIAL_CHARGES>
10
1 1.24
10 0.28
11 0.06
2 -0.55
3 -0.55
4 -0.7
5 -0.57
7 0.06
8 0.45
9 0.28

> <PUBCHEM_EFFECTIVE_ROTOR_COUNT>
7

> <PUBCHEM_PHARMACOPHORE_FEATURES>
2
1 4 acceptor
1 5 acceptor

> <PUBCHEM_HEAVY_ATOM_COUNT>
13

> <PUBCHEM_ATOM_DEF_STEREO_COUNT>
0

> <PUBCHEM_ATOM_UDEF_STEREO_COUNT>
0

> <PUBCHEM_BOND_DEF_STEREO_COUNT>
0

> <PUBCHEM_BOND_UDEF_STEREO_COUNT>
0

> <PUBCHEM_ISOTOPIC_ATOM_COUNT>
0

> <PUBCHEM_COMPONENT_COUNT>
1

> <PUBCHEM_CACTVS_TAUTO_COUNT>
3

> <PUBCHEM_CONFORMER_ID>
000036D100000001

> <PUBCHEM_MMFF94_ENERGY>
4.3418

> <PUBCHEM_FEATURE_SELFOVERLAP>
10.149

> <PUBCHEM_SHAPE_FINGERPRINT>
1 1 18409449189330889086
107287 299 18410008827985747099
10922049 32 18200304425480930924
12138202 97 18047737223045529620
12616999 72 18408610249364033897
12932764 1 17313399945562537865
13911882 115 18124570047786604987
14004458 79 17329691134093515430
14252887 29 18058712668657819729
14648413 74 18126005103248648557
14817 1 8744806169513729818
15502708 8 17688023116125920990
15502722 9 18337664312567656694
170605 34 17988926656304200113
18186145 218 18041552525710522992
19786989 88 18412825793850515569
20231682 184 17917710154275376188
20388580 30 17824251824807231030
20645477 56 18049714123562408172
20645477 70 18339369677410707999
20671657 53 17976813517015979838
20708731 107 18261674882218445451
20711985 344 17472149379784808978
20820808 20 18334571322108338584
21499 59 18338797814619490661
21524375 3 18200877253806619400
22218785 32 18339629050185059252
22620623 9 17539108572632330470
23382010 3 17823700750686282952
23419403 2 17552584406249209354
23530152 11 18335702685071429758
23532345 88 18191037883295155303
23557571 272 17345165888724007475
298252 57 18270678641552587760
3060560 45 18410855434590798388
3248919 1 18267603453785400473
458136 41 18335689534208409059
68419 9 17622762758916229730
7364860 26 18338515351742019732
76951 1 17312828177772038082
81228 2 17329155667482762082
81539 233 18342457032339969445

> <PUBCHEM_SHAPE_MULTIPOLES>
247.91
5.96
3.11
1.28
5.05
3.84
0.54
-4.46
-1.54
-3.07
-1.38
-0.32
-0.16
0

> <PUBCHEM_SHAPE_SELFOVERLAP>
441.65

> <PUBCHEM_SHAPE_VOLUME>
160.8

> <PUBCHEM_COORDINATE_TYPE>
2
5
10

$$$$

