582722
  -OEChem-06241222433D

 29 30  0     0  0  0  0  0  0999 V2000
   -0.5778   -2.0506   -0.5830 O   0  0  0  0  0  0  0  0  0  0  0  0
    1.3259    2.8980    0.0610 O   0  0  0  0  0  0  0  0  0  0  0  0
   -0.9326    0.2308   -0.5744 N   0  0  0  0  0  0  0  0  0  0  0  0
   -0.4279    1.5051   -0.4053 N   0  0  0  0  0  0  0  0  0  0  0  0
   -5.5158   -0.2609    1.2426 N   0  0  0  0  0  0  0  0  0  0  0  0
   -2.3359    0.0784   -0.9086 C   0  0  0  0  0  0  0  0  0  0  0  0
   -3.2234   -0.0382    0.3291 C   0  0  0  0  0  0  0  0  0  0  0  0
    1.2644   -0.6958   -0.0985 C   0  0  0  0  0  0  0  0  0  0  0  0
   -0.1577   -0.9048   -0.4387 C   0  0  0  0  0  0  0  0  0  0  0  0
    1.7682    0.5929    0.0710 C   0  0  0  0  0  0  0  0  0  0  0  0
   -4.7188   -0.1666    0.0254 C   0  0  0  0  0  0  0  0  0  0  0  0
    0.8853    1.7615   -0.0878 C   0  0  0  0  0  0  0  0  0  0  0  0
    2.1125   -1.7999    0.0545 C   0  0  0  0  0  0  0  0  0  0  0  0
    3.1177    0.7811    0.3930 C   0  0  0  0  0  0  0  0  0  0  0  0
    3.4570   -1.6097    0.3754 C   0  0  0  0  0  0  0  0  0  0  0  0
    3.9588   -0.3213    0.5442 C   0  0  0  0  0  0  0  0  0  0  0  0
   -2.4668   -0.8118   -1.5354 H   0  0  0  0  0  0  0  0  0  0  0  0
   -2.6439    0.9385   -1.5153 H   0  0  0  0  0  0  0  0  0  0  0  0
   -3.0615    0.8414    0.9664 H   0  0  0  0  0  0  0  0  0  0  0  0
   -2.8990   -0.9042    0.9213 H   0  0  0  0  0  0  0  0  0  0  0  0
   -1.0879    2.2672   -0.5226 H   0  0  0  0  0  0  0  0  0  0  0  0
   -4.8953   -1.0554   -0.5904 H   0  0  0  0  0  0  0  0  0  0  0  0
   -5.0530    0.7035   -0.5499 H   0  0  0  0  0  0  0  0  0  0  0  0
    1.7469   -2.8155   -0.0717 H   0  0  0  0  0  0  0  0  0  0  0  0
    3.5326    1.7761    0.5298 H   0  0  0  0  0  0  0  0  0  0  0  0
    4.1129   -2.4674    0.4936 H   0  0  0  0  0  0  0  0  0  0  0  0
    5.0056   -0.1749    0.7940 H   0  0  0  0  0  0  0  0  0  0  0  0
   -5.2313   -1.0817    1.7755 H   0  0  0  0  0  0  0  0  0  0  0  0
   -6.4942   -0.4045    0.9961 H   0  0  0  0  0  0  0  0  0  0  0  0
  1  9  2  0  0  0  0
  2 12  2  0  0  0  0
  3  4  1  0  0  0  0
  3  6  1  0  0  0  0
  3  9  1  0  0  0  0
  4 12  1  0  0  0  0
  4 21  1  0  0  0  0
  5 11  1  0  0  0  0
  5 28  1  0  0  0  0
  5 29  1  0  0  0  0
  6  7  1  0  0  0  0
  6 17  1  0  0  0  0
  6 18  1  0  0  0  0
  7 11  1  0  0  0  0
  7 19  1  0  0  0  0
  7 20  1  0  0  0  0
  8  9  1  0  0  0  0
  8 10  1  0  0  0  0
  8 13  2  0  0  0  0
 10 12  1  0  0  0  0
 10 14  2  0  0  0  0
 11 22  1  0  0  0  0
 11 23  1  0  0  0  0
 13 15  1  0  0  0  0
 13 24  1  0  0  0  0
 14 16  1  0  0  0  0
 14 25  1  0  0  0  0
 15 16  2  0  0  0  0
 15 26  1  0  0  0  0
 16 27  1  0  0  0  0
M  END
> <PUBCHEM_COMPOUND_CID>
582722

> <PUBCHEM_CONFORMER_RMSD>
0.6

> <PUBCHEM_CONFORMER_DIVERSEORDER>
1
13
12
10
5
8
6
9
11
3
2
4
7

> <PUBCHEM_MMFF94_PARTIAL_CHARGES>
22
1 -0.57
10 0.09
11 0.27
12 0.54
13 -0.15
14 -0.15
15 -0.15
16 -0.15
2 -0.57
21 0.37
24 0.15
25 0.15
26 0.15
27 0.15
28 0.36
29 0.36
3 -0.36
4 -0.43
5 -0.99
6 0.3
8 0.09
9 0.54

> <PUBCHEM_EFFECTIVE_ROTOR_COUNT>
3

> <PUBCHEM_PHARMACOPHORE_FEATURES>
7
1 1 acceptor
1 2 acceptor
1 4 donor
1 5 cation
1 5 donor
6 3 4 8 9 10 12 rings
6 8 10 13 14 15 16 rings

> <PUBCHEM_HEAVY_ATOM_COUNT>
16

> <PUBCHEM_ATOM_DEF_STEREO_COUNT>
0

> <PUBCHEM_ATOM_UDEF_STEREO_COUNT>
0

> <PUBCHEM_BOND_DEF_STEREO_COUNT>
0

> <PUBCHEM_BOND_UDEF_STEREO_COUNT>
0

> <PUBCHEM_ISOTOPIC_ATOM_COUNT>
0

> <PUBCHEM_COMPONENT_COUNT>
1

> <PUBCHEM_CACTVS_TAUTO_COUNT>
2

> <PUBCHEM_CONFORMER_ID>
0008E44200000001

> <PUBCHEM_MMFF94_ENERGY>
33.1961

> <PUBCHEM_FEATURE_SELFOVERLAP>
35.546

> <PUBCHEM_SHAPE_FINGERPRINT>
10493431 412 18263088721365311576
10967382 1 18410303501555291718
11471102 20 18411145722629104789
11471102 22 18341604911065897681
11796584 16 16558480797785678835
12032990 46 18340208608539578574
12236239 1 17676214554965476191
12251169 10 18409166597842094319
12644460 14 18271238327072537560
13140716 1 18194410978773818320
14252887 29 18334292114837631654
14790565 3 17765709131577901188
15375462 189 18272099313354254458
16945 1 18338252483022688228
17844478 74 18059864999002176044
18785283 64 18057602062365256900
193761 8 17906745700159318118
20028762 73 18260552174095725487
20645477 70 18270978859861224991
20671657 1 18264770952259213037
20739085 24 18337095878020275360
20871998 22 18263077889199367286
21029758 27 18343584070645520428
21041028 32 18336265746820692105
21267235 1 18339076090483959942
21501502 16 18121788226800039790
21637258 2 15913060823713821650
23184049 59 18334297582241120855
2334 1 17762913065028470404
23402539 116 18188510063044646902
2748010 2 18121235417696940588
465052 167 18343013385508895795
5104073 3 18194133034581758162
537710 114 18413386536407193796

> <PUBCHEM_SHAPE_MULTIPOLES>
302.59
8.12
2.09
0.83
10.51
0.83
-0.06
-1.9
-3.06
-1.64
0.11
0.54
-0.07
0.06

> <PUBCHEM_SHAPE_SELFOVERLAP>
641.225

> <PUBCHEM_SHAPE_VOLUME>
168

> <PUBCHEM_COORDINATE_TYPE>
2
5
10

$$$$

