13206
  -OEChem-06261207532D

 14 14  0     0  0  0  0  0  0999 V2000
    3.7601   -0.4197    0.0000 O   0  0  0  0  0  0  0  0  0  0  0  0
    6.2633    0.5282    0.0000 O   0  5  0  0  0  0  0  0  0  0  0  0
    5.7281   -1.1191    0.0000 O   0  0  0  0  0  0  0  0  0  0  0  0
    5.5202   -0.1410    0.0000 N   0  3  0  0  0  0  0  0  0  0  0  0
    2.9511    0.1681    0.0000 C   0  0  0  0  0  0  0  0  0  0  0  0
    3.2601    1.1191    0.0000 C   0  0  0  0  0  0  0  0  0  0  0  0
    4.5691    0.1681    0.0000 C   0  0  0  0  0  0  0  0  0  0  0  0
    4.2601    1.1191    0.0000 C   0  0  0  0  0  0  0  0  0  0  0  0
    2.0000   -0.1410    0.0000 C   0  0  0  0  0  0  0  0  0  0  0  0
    2.8956    1.6207    0.0000 H   0  0  0  0  0  0  0  0  0  0  0  0
    4.6245    1.6207    0.0000 H   0  0  0  0  0  0  0  0  0  0  0  0
    1.8084    0.4487    0.0000 H   0  0  0  0  0  0  0  0  0  0  0  0
    1.4103   -0.3326    0.0000 H   0  0  0  0  0  0  0  0  0  0  0  0
    2.1916   -0.7306    0.0000 H   0  0  0  0  0  0  0  0  0  0  0  0
  1  5  1  0  0  0  0
  1  7  1  0  0  0  0
  2  4  1  0  0  0  0
  3  4  2  0  0  0  0
  4  7  1  0  0  0  0
  5  6  2  0  0  0  0
  5  9  1  0  0  0  0
  6  8  1  0  0  0  0
  6 10  1  0  0  0  0
  7  8  2  0  0  0  0
  8 11  1  0  0  0  0
  9 12  1  0  0  0  0
  9 13  1  0  0  0  0
  9 14  1  0  0  0  0
M  CHG  2   2  -1   4   1
M  END
> <PUBCHEM_COMPOUND_CID>
13206

> <PUBCHEM_COMPOUND_CANONICALIZED>
1

> <PUBCHEM_CACTVS_COMPLEXITY>
120

> <PUBCHEM_CACTVS_HBOND_ACCEPTOR>
3

> <PUBCHEM_CACTVS_HBOND_DONOR>
0

> <PUBCHEM_CACTVS_ROTATABLE_BOND>
0

> <PUBCHEM_CACTVS_SUBSKEYS>
AAADcYBiMAAAAAAAAAAAAAAAAAAAASAAAAAAAAAAAAAAAAABgAAAHgAEAAAACASBkAAyhIAQRECJAKFSUwCCCAAsIgAoiAEGbMoMJjKEtZuKGSDkwBEI6Ya8AAAAAAAAAAAAAAAAAAAAAAAAAAAAAAAAAA==

> <PUBCHEM_IUPAC_OPENEYE_NAME>
2-methyl-5-nitro-furan

> <PUBCHEM_IUPAC_CAS_NAME>
2-methyl-5-nitrofuran

> <PUBCHEM_IUPAC_NAME>
2-methyl-5-nitrofuran

> <PUBCHEM_IUPAC_SYSTEMATIC_NAME>
2-methyl-5-nitro-furan

> <PUBCHEM_IUPAC_TRADITIONAL_NAME>
2-methyl-5-nitro-furan

> <PUBCHEM_IUPAC_INCHI>
InChI=1S/C5H5NO3/c1-4-2-3-5(9-4)6(7)8/h2-3H,1H3

> <PUBCHEM_IUPAC_INCHIKEY>
VOBFYAXUVBEUGM-UHFFFAOYSA-N

> <PUBCHEM_XLOGP3>
1.7

> <PUBCHEM_EXACT_MASS>
127.026943

> <PUBCHEM_MOLECULAR_FORMULA>
C5H5NO3

> <PUBCHEM_MOLECULAR_WEIGHT>
127.0981

> <PUBCHEM_OPENEYE_CAN_SMILES>
CC1=CC=C(O1)[N+](=O)[O-]

> <PUBCHEM_OPENEYE_ISO_SMILES>
CC1=CC=C(O1)[N+](=O)[O-]

> <PUBCHEM_CACTVS_TPSA>
59

> <PUBCHEM_MONOISOTOPIC_WEIGHT>
127.026943

> <PUBCHEM_TOTAL_CHARGE>
0

> <PUBCHEM_HEAVY_ATOM_COUNT>
9

> <PUBCHEM_ATOM_DEF_STEREO_COUNT>
0

> <PUBCHEM_ATOM_UDEF_STEREO_COUNT>
0

> <PUBCHEM_BOND_DEF_STEREO_COUNT>
0

> <PUBCHEM_BOND_UDEF_STEREO_COUNT>
0

> <PUBCHEM_ISOTOPIC_ATOM_COUNT>
0

> <PUBCHEM_COMPONENT_COUNT>
1

> <PUBCHEM_CACTVS_TAUTO_COUNT>
1

> <PUBCHEM_COORDINATE_TYPE>
1
5
255

> <PUBCHEM_BONDANNOTATIONS>
1  5  8
1  7  8
5  6  8
6  8  8
7  8  8

$$$$

