9876
  -OEChem-06261204103D

 12 11  0     1  0  0  0  0  0999 V2000
    0.5318   -1.0497    1.8295 Cl  0  0  0  0  0  0  0  0  0  0  0  0
    0.5346    1.3718    1.0003 F   0  0  0  0  0  0  0  0  0  0  0  0
   -0.5425   -1.3043   -1.0760 F   0  0  0  0  0  0  0  0  0  0  0  0
   -0.5097    0.8358   -1.5245 F   0  0  0  0  0  0  0  0  0  0  0  0
    2.1814   -1.1042   -0.6734 O   0  5  0  0  0  0  0  0  0  0  0  0
    2.6646    0.9498   -0.0607 O   0  0  0  0  0  0  0  0  0  0  0  0
   -2.4083    1.1945    0.0907 O   0  5  0  0  0  0  0  0  0  0  0  0
   -2.4505   -0.9677    0.4922 O   0  0  0  0  0  0  0  0  0  0  0  0
    1.9070   -0.0279   -0.1241 N   0  3  0  0  0  0  0  0  0  0  0  0
   -1.9085    0.0623    0.0714 N   0  3  0  0  0  0  0  0  0  0  0  0
    0.5437    0.1106    0.5023 C   0  0  1  0  0  0  0  0  0  0  0  0
   -0.5437   -0.0710   -0.5277 C   0  0  0  0  0  0  0  0  0  0  0  0
  1 11  1  0  0  0  0
  2 11  1  0  0  0  0
  3 12  1  0  0  0  0
  4 12  1  0  0  0  0
  5  9  1  0  0  0  0
  6  9  2  0  0  0  0
  7 10  1  0  0  0  0
  8 10  2  0  0  0  0
  9 11  1  0  0  0  0
 10 12  1  0  0  0  0
 11 12  1  0  0  0  0
M  CHG  4   5  -1   7  -1   9   1  10   1
M  END
> <PUBCHEM_COMPOUND_CID>
9876

> <PUBCHEM_CONFORMER_RMSD>
0.6

> <PUBCHEM_CONFORMER_DIVERSEORDER>
1
20
7
8
5
18
6
16
2
15
4
13
3
14
17
9
11
10
19
12

> <PUBCHEM_MMFF94_PARTIAL_CHARGES>
12
1 -0.29
10 0.8
11 0.87
12 0.92
2 -0.34
3 -0.34
4 -0.34
5 -0.52
6 -0.52
7 -0.52
8 -0.52
9 0.8

> <PUBCHEM_EFFECTIVE_ROTOR_COUNT>
3

> <PUBCHEM_PHARMACOPHORE_FEATURES>
6
1 5 acceptor
1 5 anion
1 6 acceptor
1 7 acceptor
1 7 anion
1 8 acceptor

> <PUBCHEM_HEAVY_ATOM_COUNT>
12

> <PUBCHEM_ATOM_DEF_STEREO_COUNT>
0

> <PUBCHEM_ATOM_UDEF_STEREO_COUNT>
1

> <PUBCHEM_BOND_DEF_STEREO_COUNT>
0

> <PUBCHEM_BOND_UDEF_STEREO_COUNT>
0

> <PUBCHEM_ISOTOPIC_ATOM_COUNT>
0

> <PUBCHEM_COMPONENT_COUNT>
1

> <PUBCHEM_CACTVS_TAUTO_COUNT>
1

> <PUBCHEM_CONFORMER_ID>
0000269400000001

> <PUBCHEM_MMFF94_ENERGY>
15.691

> <PUBCHEM_FEATURE_SELFOVERLAP>
30.607

> <PUBCHEM_SHAPE_FINGERPRINT>
12423570 1 15195288620578719562
15310529 11 18260264127237568366
16945 1 18265328413222928143
21040471 1 17749403567115092150
21922407 69 17130731472615705985
24536 1 17244178983458739705
29004967 10 18113897152359588338
369184 2 17275114902969056932
5084963 1 18201716245344347237
528886 8 18040438814777889296

> <PUBCHEM_SHAPE_MULTIPOLES>
193.56
3.07
1.4
1.23
0.13
0.6
-0.07
-0.32
0.12
0
0.11
-0.15
-0.08
-0.1

> <PUBCHEM_SHAPE_SELFOVERLAP>
381.31

> <PUBCHEM_SHAPE_VOLUME>
117

> <PUBCHEM_COORDINATE_TYPE>
2
5
10

$$$$

