47205126
  -OEChem-06241222583D

 36 36  0     1  0  0  0  0  0999 V2000
   -0.9529   -0.7308   -2.7504 Br  0  0  0  0  0  0  0  0  0  0  0  0
   -2.6325    0.2630   -0.0211 S   0  0  0  0  0  0  0  0  0  0  0  0
    1.5378   -3.8644    0.5591 F   0  0  0  0  0  0  0  0  0  0  0  0
   -3.4608   -0.0570   -1.1680 O   0  0  0  0  0  0  0  0  0  0  0  0
   -3.2278    0.3928    1.2951 O   0  0  0  0  0  0  0  0  0  0  0  0
    0.7887    2.3097   -1.2922 O   0  0  0  0  0  0  0  0  0  0  0  0
   -1.7220    1.6598   -0.3550 N   0  0  0  0  0  0  0  0  0  0  0  0
    1.6834    1.7951    0.7861 N   0  0  0  0  0  0  0  0  0  0  0  0
   -0.6979    2.1216    0.6049 C   0  0  1  0  0  0  0  0  0  0  0  0
    0.6498    2.0942   -0.0901 C   0  0  0  0  0  0  0  0  0  0  0  0
   -1.0458    3.5249    1.0748 C   0  0  0  0  0  0  0  0  0  0  0  0
   -1.3722   -0.9704    0.1020 C   0  0  0  0  0  0  0  0  0  0  0  0
    3.0637    1.7031    0.3689 C   0  0  0  0  0  0  0  0  0  0  0  0
    3.4462    0.2931   -0.0647 C   0  0  0  0  0  0  0  0  0  0  0  0
   -0.6501   -1.4145   -1.0058 C   0  0  0  0  0  0  0  0  0  0  0  0
   -1.1111   -1.5038    1.3640 C   0  0  0  0  0  0  0  0  0  0  0  0
    4.9049    0.1824   -0.4853 C   0  0  0  0  0  0  0  0  0  0  0  0
    0.3329   -2.3920   -0.8514 C   0  0  0  0  0  0  0  0  0  0  0  0
   -0.1283   -2.4815    1.5184 C   0  0  0  0  0  0  0  0  0  0  0  0
    0.5939   -2.9255    0.4106 C   0  0  0  0  0  0  0  0  0  0  0  0
   -0.6767    1.4637    1.4799 H   0  0  0  0  0  0  0  0  0  0  0  0
   -1.6922    2.0479   -1.3055 H   0  0  0  0  0  0  0  0  0  0  0  0
   -1.0752    4.2295    0.2358 H   0  0  0  0  0  0  0  0  0  0  0  0
   -2.0276    3.5429    1.5598 H   0  0  0  0  0  0  0  0  0  0  0  0
   -0.3026    3.8939    1.7895 H   0  0  0  0  0  0  0  0  0  0  0  0
    3.6762    2.0175    1.2207 H   0  0  0  0  0  0  0  0  0  0  0  0
    3.2358    2.4110   -0.4496 H   0  0  0  0  0  0  0  0  0  0  0  0
    1.4764    1.6279    1.7663 H   0  0  0  0  0  0  0  0  0  0  0  0
    3.2537   -0.4091    0.7556 H   0  0  0  0  0  0  0  0  0  0  0  0
    2.8082   -0.0225   -0.8992 H   0  0  0  0  0  0  0  0  0  0  0  0
   -1.6490   -1.1816    2.2503 H   0  0  0  0  0  0  0  0  0  0  0  0
    5.1184    0.8436   -1.3310 H   0  0  0  0  0  0  0  0  0  0  0  0
    5.5707    0.4531    0.3402 H   0  0  0  0  0  0  0  0  0  0  0  0
    5.1357   -0.8437   -0.7876 H   0  0  0  0  0  0  0  0  0  0  0  0
    0.9074   -2.7506   -1.7016 H   0  0  0  0  0  0  0  0  0  0  0  0
    0.0763   -2.8966    2.5009 H   0  0  0  0  0  0  0  0  0  0  0  0
  1 15  1  0  0  0  0
  2  4  2  0  0  0  0
  2  5  2  0  0  0  0
  2  7  1  0  0  0  0
  2 12  1  0  0  0  0
  3 20  1  0  0  0  0
  6 10  2  0  0  0  0
  7  9  1  0  0  0  0
  7 22  1  0  0  0  0
  8 10  1  0  0  0  0
  8 13  1  0  0  0  0
  8 28  1  0  0  0  0
  9 10  1  0  0  0  0
  9 11  1  0  0  0  0
  9 21  1  0  0  0  0
 11 23  1  0  0  0  0
 11 24  1  0  0  0  0
 11 25  1  0  0  0  0
 12 15  2  0  0  0  0
 12 16  1  0  0  0  0
 13 14  1  0  0  0  0
 13 26  1  0  0  0  0
 13 27  1  0  0  0  0
 14 17  1  0  0  0  0
 14 29  1  0  0  0  0
 14 30  1  0  0  0  0
 15 18  1  0  0  0  0
 16 19  2  0  0  0  0
 16 31  1  0  0  0  0
 17 32  1  0  0  0  0
 17 33  1  0  0  0  0
 17 34  1  0  0  0  0
 18 20  2  0  0  0  0
 18 35  1  0  0  0  0
 19 20  1  0  0  0  0
 19 36  1  0  0  0  0
M  END
> <PUBCHEM_COMPOUND_CID>
47205126

> <PUBCHEM_CONFORMER_RMSD>
0.8

> <PUBCHEM_CONFORMER_DIVERSEORDER>
7
59
38
86
62
168
128
197
68
31
49
79
156
30
11
178
133
110
70
90
44
164
9
201
131
122
162
163
6
137
175
77
108
132
103
173
200
96
54
170
109
159
53
180
107
48
76
166
23
196
33
3
130
184
177
143
151
134
84
116
185
125
179
45
119
145
47
158
22
176
42
60
169
121
111
75
144
99
114
172
136
41
139
5
102
171
194
203
94
113
124
32
167
52
91
17
10
199
100
66
88
120
165
207
153
198
190
183
106
202
51
67
95
193
135
85
204
187
16
126
69
35
105
146
206
161
21
188
127
118
27
28
149
71
34
97
18
181
93
191
117
83
92
14
142
148
72
26
152
25
1
205
63
104
39
74
78
12
36
37
115
13
98
186
141
123
81
138
150
40
89
61
80
155
2
8
87
4
189
73
64
147
24
50
56
112
15
154
182
129
57
82
174
43
65
140
101
20
157
19
58
29
46
195
160
55
192

> <PUBCHEM_MMFF94_PARTIAL_CHARGES>
22
1 -0.11
10 0.57
12 -0.01
13 0.3
15 0.11
16 -0.15
18 -0.15
19 -0.15
2 1.45
20 0.19
22 0.42
28 0.37
3 -0.19
31 0.15
35 0.15
36 0.15
4 -0.65
5 -0.65
6 -0.57
7 -0.91
8 -0.73
9 0.42

> <PUBCHEM_EFFECTIVE_ROTOR_COUNT>
7

> <PUBCHEM_PHARMACOPHORE_FEATURES>
8
1 1 hydrophobe
1 17 hydrophobe
1 4 acceptor
1 5 acceptor
1 6 acceptor
1 7 donor
1 8 donor
6 12 15 16 18 19 20 rings

> <PUBCHEM_HEAVY_ATOM_COUNT>
20

> <PUBCHEM_ATOM_DEF_STEREO_COUNT>
0

> <PUBCHEM_ATOM_UDEF_STEREO_COUNT>
1

> <PUBCHEM_BOND_DEF_STEREO_COUNT>
0

> <PUBCHEM_BOND_UDEF_STEREO_COUNT>
0

> <PUBCHEM_ISOTOPIC_ATOM_COUNT>
0

> <PUBCHEM_COMPONENT_COUNT>
1

> <PUBCHEM_CACTVS_TAUTO_COUNT>
2

> <PUBCHEM_CONFORMER_ID>
02D04B0600000007

> <PUBCHEM_MMFF94_ENERGY>
19.5668

> <PUBCHEM_FEATURE_SELFOVERLAP>
40.612

> <PUBCHEM_SHAPE_MULTIPOLES>
386.54
5.04
4.26
1.76
6.05
0.59
0.99
-1.03
0.47
0.23
-1.55
-1
0.58
-0.16

> <PUBCHEM_SHAPE_SELFOVERLAP>
756.886

> <PUBCHEM_SHAPE_VOLUME>
235.8

> <PUBCHEM_COORDINATE_TYPE>
2
5
10

$$$$

