47205163
  -OEChem-06241222583D

 39 40  0     1  0  0  0  0  0999 V2000
   -2.6545   -2.2587   -0.6373 O   0  0  0  0  0  0  0  0  0  0  0  0
    2.9978   -2.3514    0.0889 O   0  0  0  0  0  0  0  0  0  0  0  0
   -0.8467   -2.1976    0.8217 N   0  0  0  0  0  0  0  0  0  0  0  0
    1.4970   -0.6497   -0.5168 N   0  0  0  0  0  0  0  0  0  0  0  0
    1.6234    1.7242   -0.4504 N   0  0  0  0  0  0  0  0  0  0  0  0
   -3.3751    0.3972    0.1848 C   0  0  1  0  0  0  0  0  0  0  0  0
   -2.5264    1.0166   -0.9354 C   0  0  0  0  0  0  0  0  0  0  0  0
   -3.0373    2.4472   -1.1086 C   0  0  0  0  0  0  0  0  0  0  0  0
   -2.5689   -0.5444    1.0670 C   0  0  0  0  0  0  0  0  0  0  0  0
   -3.8728    1.6071    0.9138 C   0  0  0  0  0  0  0  0  0  0  0  0
   -3.6906    2.7241    0.2033 C   0  0  0  0  0  0  0  0  0  0  0  0
   -2.0562   -1.7530    0.3084 C   0  0  0  0  0  0  0  0  0  0  0  0
   -0.1339   -3.3359    0.2887 C   0  0  0  0  0  0  0  0  0  0  0  0
    0.8380   -2.9360   -0.8127 C   0  0  0  0  0  0  0  0  0  0  0  0
    1.9199   -1.9659   -0.3513 C   0  0  0  0  0  0  0  0  0  0  0  0
    2.2152    0.5317   -0.2147 C   0  0  0  0  0  0  0  0  0  0  0  0
    3.4903    0.3884    0.3080 C   0  0  0  0  0  0  0  0  0  0  0  0
    4.2041    1.5432    0.6085 C   0  0  0  0  0  0  0  0  0  0  0  0
    2.3477    2.8245   -0.1461 C   0  0  0  0  0  0  0  0  0  0  0  0
    3.6289    2.7884    0.3802 C   0  0  0  0  0  0  0  0  0  0  0  0
   -4.2355   -0.1314   -0.2452 H   0  0  0  0  0  0  0  0  0  0  0  0
   -1.4638    1.0438   -0.6600 H   0  0  0  0  0  0  0  0  0  0  0  0
   -2.6008    0.4479   -1.8686 H   0  0  0  0  0  0  0  0  0  0  0  0
   -2.2129    3.1381   -1.3073 H   0  0  0  0  0  0  0  0  0  0  0  0
   -3.7674    2.5204   -1.9211 H   0  0  0  0  0  0  0  0  0  0  0  0
   -1.7308   -0.0049    1.5267 H   0  0  0  0  0  0  0  0  0  0  0  0
   -3.1929   -0.9205    1.8874 H   0  0  0  0  0  0  0  0  0  0  0  0
   -4.3640    1.5750    1.8760 H   0  0  0  0  0  0  0  0  0  0  0  0
   -4.0091    3.7062    0.5214 H   0  0  0  0  0  0  0  0  0  0  0  0
   -0.4287   -1.7124    1.6101 H   0  0  0  0  0  0  0  0  0  0  0  0
   -0.8547   -4.0657   -0.0946 H   0  0  0  0  0  0  0  0  0  0  0  0
    0.4058   -3.7920    1.1255 H   0  0  0  0  0  0  0  0  0  0  0  0
    0.2946   -2.5022   -1.6613 H   0  0  0  0  0  0  0  0  0  0  0  0
    1.3437   -3.8307   -1.1954 H   0  0  0  0  0  0  0  0  0  0  0  0
    0.5661   -0.4836   -0.8913 H   0  0  0  0  0  0  0  0  0  0  0  0
    4.0010   -0.5381    0.5120 H   0  0  0  0  0  0  0  0  0  0  0  0
    5.2068    1.4748    1.0201 H   0  0  0  0  0  0  0  0  0  0  0  0
    1.8542    3.7706   -0.3427 H   0  0  0  0  0  0  0  0  0  0  0  0
    4.1666    3.7019    0.6069 H   0  0  0  0  0  0  0  0  0  0  0  0
  1 12  2  0  0  0  0
  2 15  2  0  0  0  0
  3 12  1  0  0  0  0
  3 13  1  0  0  0  0
  3 30  1  0  0  0  0
  4 15  1  0  0  0  0
  4 16  1  0  0  0  0
  4 35  1  0  0  0  0
  5 16  1  0  0  0  0
  5 19  2  0  0  0  0
  6  7  1  0  0  0  0
  6  9  1  0  0  0  0
  6 10  1  0  0  0  0
  6 21  1  0  0  0  0
  7  8  1  0  0  0  0
  7 22  1  0  0  0  0
  7 23  1  0  0  0  0
  8 11  1  0  0  0  0
  8 24  1  0  0  0  0
  8 25  1  0  0  0  0
  9 12  1  0  0  0  0
  9 26  1  0  0  0  0
  9 27  1  0  0  0  0
 10 11  2  0  0  0  0
 10 28  1  0  0  0  0
 11 29  1  0  0  0  0
 13 14  1  0  0  0  0
 13 31  1  0  0  0  0
 13 32  1  0  0  0  0
 14 15  1  0  0  0  0
 14 33  1  0  0  0  0
 14 34  1  0  0  0  0
 16 17  2  0  0  0  0
 17 18  1  0  0  0  0
 17 36  1  0  0  0  0
 18 20  2  0  0  0  0
 18 37  1  0  0  0  0
 19 20  1  0  0  0  0
 19 38  1  0  0  0  0
 20 39  1  0  0  0  0
M  END
> <PUBCHEM_COMPOUND_CID>
47205163

> <PUBCHEM_CONFORMER_RMSD>
1

> <PUBCHEM_CONFORMER_DIVERSEORDER>
2
7
57
31
12
72
41
35
67
27
62
55
1
83
16
34
3
49
18
78
87
54
4
39
44
10
40
6
20
52
81
5
80
75
59
69
15
8
89
9
47
51
22
65
56
77
86
23
82
19
64
38
76
25
46
36
92
17
84
24
61
50
71
33
42
94
95
21
79
73
28
11
58
32
30
13
45
68
43
91
53
96
63
48
74
26
85
70
90
93
29
60
37
66
88
14

> <PUBCHEM_MMFF94_PARTIAL_CHARGES>
27
1 -0.57
10 -0.29
11 -0.29
12 0.57
13 0.3
14 0.06
15 0.57
16 0.43
17 -0.15
18 -0.15
19 0.16
2 -0.57
20 -0.15
28 0.15
29 0.15
3 -0.73
30 0.37
35 0.37
36 0.15
37 0.15
38 0.15
39 0.15
4 -0.55
5 -0.62
6 0.14
8 0.14
9 0.06

> <PUBCHEM_EFFECTIVE_ROTOR_COUNT>
8.6

> <PUBCHEM_PHARMACOPHORE_FEATURES>
7
1 1 acceptor
1 2 acceptor
1 3 donor
1 4 donor
1 5 acceptor
5 6 7 8 10 11 rings
6 5 16 17 18 19 20 rings

> <PUBCHEM_HEAVY_ATOM_COUNT>
20

> <PUBCHEM_ATOM_DEF_STEREO_COUNT>
0

> <PUBCHEM_ATOM_UDEF_STEREO_COUNT>
1

> <PUBCHEM_BOND_DEF_STEREO_COUNT>
0

> <PUBCHEM_BOND_UDEF_STEREO_COUNT>
0

> <PUBCHEM_ISOTOPIC_ATOM_COUNT>
0

> <PUBCHEM_COMPONENT_COUNT>
1

> <PUBCHEM_CACTVS_TAUTO_COUNT>
6

> <PUBCHEM_CONFORMER_ID>
02D04B2B00000002

> <PUBCHEM_MMFF94_ENERGY>
40.5328

> <PUBCHEM_FEATURE_SELFOVERLAP>
35.521

> <PUBCHEM_SHAPE_MULTIPOLES>
384.91
8.08
4.68
0.97
0.08
1.43
0.02
-6.66
-1.1
0.73
0.27
-0.53
-0.08
0.71

> <PUBCHEM_SHAPE_SELFOVERLAP>
795.855

> <PUBCHEM_SHAPE_VOLUME>
219.3

> <PUBCHEM_COORDINATE_TYPE>
2
5
10

$$$$

