854019
  -OEChem-06241222463D

 25 26  0     1  0  0  0  0  0999 V2000
    3.3630   -0.9449   -0.6278 O   0  0  0  0  0  0  0  0  0  0  0  0
    1.5448   -0.2713    0.7083 N   0  0  0  0  0  0  0  0  0  0  0  0
   -2.2125   -1.2396   -0.9755 N   0  0  0  0  0  0  0  0  0  0  0  0
    0.5328    0.7737    0.6884 C   0  0  1  0  0  0  0  0  0  0  0  0
    1.1232    1.7938   -0.2845 C   0  0  0  0  0  0  0  0  0  0  0  0
    2.0055    0.9715   -1.2195 C   0  0  0  0  0  0  0  0  0  0  0  0
    2.4306   -0.1993   -0.3661 C   0  0  0  0  0  0  0  0  0  0  0  0
   -0.8487    0.3050    0.2800 C   0  0  0  0  0  0  0  0  0  0  0  0
    1.5956   -1.2677    1.7599 C   0  0  0  0  0  0  0  0  0  0  0  0
   -1.9851    0.9473    0.7504 C   0  0  0  0  0  0  0  0  0  0  0  0
   -1.0099   -0.7724   -0.5716 C   0  0  0  0  0  0  0  0  0  0  0  0
   -3.2401    0.4958    0.3573 C   0  0  0  0  0  0  0  0  0  0  0  0
   -3.2992   -0.5917   -0.4993 C   0  0  0  0  0  0  0  0  0  0  0  0
    0.4827    1.2054    1.6960 H   0  0  0  0  0  0  0  0  0  0  0  0
    1.7630    2.4925    0.2707 H   0  0  0  0  0  0  0  0  0  0  0  0
    0.3796    2.3882   -0.8246 H   0  0  0  0  0  0  0  0  0  0  0  0
    2.8735    1.5407   -1.5611 H   0  0  0  0  0  0  0  0  0  0  0  0
    1.4423    0.5974   -2.0799 H   0  0  0  0  0  0  0  0  0  0  0  0
    2.4308   -1.9530    1.5934 H   0  0  0  0  0  0  0  0  0  0  0  0
    0.6604   -1.8330    1.7698 H   0  0  0  0  0  0  0  0  0  0  0  0
    1.7290   -0.7596    2.7186 H   0  0  0  0  0  0  0  0  0  0  0  0
   -1.9074    1.7992    1.4199 H   0  0  0  0  0  0  0  0  0  0  0  0
   -0.1706   -1.3202   -0.9859 H   0  0  0  0  0  0  0  0  0  0  0  0
   -4.1435    0.9801    0.7098 H   0  0  0  0  0  0  0  0  0  0  0  0
   -4.2539   -0.9824   -0.8356 H   0  0  0  0  0  0  0  0  0  0  0  0
  1  7  2  0  0  0  0
  2  4  1  0  0  0  0
  2  7  1  0  0  0  0
  2  9  1  0  0  0  0
  3 11  1  0  0  0  0
  3 13  2  0  0  0  0
  4  5  1  0  0  0  0
  4  8  1  0  0  0  0
  4 14  1  0  0  0  0
  5  6  1  0  0  0  0
  5 15  1  0  0  0  0
  5 16  1  0  0  0  0
  6  7  1  0  0  0  0
  6 17  1  0  0  0  0
  6 18  1  0  0  0  0
  8 10  1  0  0  0  0
  8 11  2  0  0  0  0
  9 19  1  0  0  0  0
  9 20  1  0  0  0  0
  9 21  1  0  0  0  0
 10 12  2  0  0  0  0
 10 22  1  0  0  0  0
 11 23  1  0  0  0  0
 12 13  1  0  0  0  0
 12 24  1  0  0  0  0
 13 25  1  0  0  0  0
M  END
> <PUBCHEM_COMPOUND_CID>
854019

> <PUBCHEM_CONFORMER_RMSD>
0.6

> <PUBCHEM_CONFORMER_DIVERSEORDER>
1
4
2
3

> <PUBCHEM_MMFF94_PARTIAL_CHARGES>
16
1 -0.57
10 -0.15
11 0.16
12 -0.15
13 0.16
2 -0.66
22 0.15
23 0.15
24 0.15
25 0.15
3 -0.62
4 0.44
6 0.06
7 0.57
8 -0.14
9 0.3

> <PUBCHEM_EFFECTIVE_ROTOR_COUNT>
1.8

> <PUBCHEM_PHARMACOPHORE_FEATURES>
4
1 1 acceptor
1 3 acceptor
5 2 4 5 6 7 rings
6 3 8 10 11 12 13 rings

> <PUBCHEM_HEAVY_ATOM_COUNT>
13

> <PUBCHEM_ATOM_DEF_STEREO_COUNT>
1

> <PUBCHEM_ATOM_UDEF_STEREO_COUNT>
0

> <PUBCHEM_BOND_DEF_STEREO_COUNT>
0

> <PUBCHEM_BOND_UDEF_STEREO_COUNT>
0

> <PUBCHEM_ISOTOPIC_ATOM_COUNT>
0

> <PUBCHEM_COMPONENT_COUNT>
1

> <PUBCHEM_CACTVS_TAUTO_COUNT>
2

> <PUBCHEM_CONFORMER_ID>
000D080300000001

> <PUBCHEM_MMFF94_ENERGY>
30.2666

> <PUBCHEM_FEATURE_SELFOVERLAP>
20.297

> <PUBCHEM_SHAPE_FINGERPRINT>
107287 299 16200429173790085346
11031198 65 16917348142811493334
12326174 3 16916244220437051080
12423570 1 14619067557520374368
124424 183 15647615691116575152
12932764 1 18202008724438765829
14128692 85 18335137587776453752
14993402 34 18409727395737247693
15219456 202 15051735321593958314
15775835 57 18342450422443589461
16945 1 17561362893984010936
18186145 218 17632565033911099108
18522853 295 17749097881850865231
19049666 15 15647880694957015641
19422 9 18338786854073694279
19786989 88 16486683680396995412
20201158 50 15647048291571741015
20279233 1 15719389547020262229
20361792 2 18271820058870068558
20645476 183 18342742910048951247
23463225 33 18188766266117328654
23552423 10 18338241436240072269
23559900 14 17386001841027232654
25 1 17346872356128786040
369184 2 6627477298078431989
5084963 1 17603299358515538361
549884 4 18342454803136138404
7364860 26 17896043139584119040
74978 22 18334580105522083197
77492 1 18411979178286693657
8030462 33 18131075934964452081
81228 2 14420065934528926482

> <PUBCHEM_SHAPE_MULTIPOLES>
251.7
5.06
1.45
1.24
1.62
0.15
-0.12
-0.75
1.01
-0.64
-0.13
-0.2
-0.28
-0.82

> <PUBCHEM_SHAPE_SELFOVERLAP>
532.249

> <PUBCHEM_SHAPE_VOLUME>
142.1

> <PUBCHEM_COORDINATE_TYPE>
2
5
10

$$$$

