10252
  -OEChem-06261204243D

 22 22  0     0  0  0  0  0  0999 V2000
   -1.4897    2.1964   -0.4207 O   0  0  0  0  0  0  0  0  0  0  0  0
    0.9184    1.5982    0.5782 O   0  0  0  0  0  0  0  0  0  0  0  0
    3.5809    0.7885    0.2479 O   0  0  0  0  0  0  0  0  0  0  0  0
    1.6609   -0.4887   -0.1401 N   0  0  0  0  0  0  0  0  0  0  0  0
   -0.7168   -0.0124    0.1071 C   0  0  0  0  0  0  0  0  0  0  0  0
   -1.7472    0.8768   -0.1979 C   0  0  0  0  0  0  0  0  0  0  0  0
   -1.0016   -1.3592    0.3324 C   0  0  0  0  0  0  0  0  0  0  0  0
    0.6633    0.4442    0.1954 C   0  0  0  0  0  0  0  0  0  0  0  0
   -3.0624    0.4193   -0.2776 C   0  0  0  0  0  0  0  0  0  0  0  0
   -2.3169   -1.8167    0.2527 C   0  0  0  0  0  0  0  0  0  0  0  0
   -3.3474   -0.9274   -0.0522 C   0  0  0  0  0  0  0  0  0  0  0  0
    3.0348   -0.2575   -0.0922 C   0  0  0  0  0  0  0  0  0  0  0  0
    3.8235   -1.4616   -0.5330 C   0  0  0  0  0  0  0  0  0  0  0  0
   -0.2350   -2.0789    0.6052 H   0  0  0  0  0  0  0  0  0  0  0  0
   -3.8754    1.1008   -0.5137 H   0  0  0  0  0  0  0  0  0  0  0  0
   -2.5403   -2.8637    0.4355 H   0  0  0  0  0  0  0  0  0  0  0  0
   -4.3717   -1.2835   -0.1123 H   0  0  0  0  0  0  0  0  0  0  0  0
    1.3722   -1.4001   -0.4847 H   0  0  0  0  0  0  0  0  0  0  0  0
    3.6503   -1.6447   -1.5970 H   0  0  0  0  0  0  0  0  0  0  0  0
    3.5209   -2.3406    0.0432 H   0  0  0  0  0  0  0  0  0  0  0  0
    4.8900   -1.2841   -0.3691 H   0  0  0  0  0  0  0  0  0  0  0  0
   -2.3249    2.6546   -0.6168 H   0  0  0  0  0  0  0  0  0  0  0  0
  1  6  1  0  0  0  0
  1 22  1  0  0  0  0
  2  8  2  0  0  0  0
  3 12  2  0  0  0  0
  4  8  1  0  0  0  0
  4 12  1  0  0  0  0
  4 18  1  0  0  0  0
  5  6  1  0  0  0  0
  5  7  2  0  0  0  0
  5  8  1  0  0  0  0
  6  9  2  0  0  0  0
  7 10  1  0  0  0  0
  7 14  1  0  0  0  0
  9 11  1  0  0  0  0
  9 15  1  0  0  0  0
 10 11  2  0  0  0  0
 10 16  1  0  0  0  0
 11 17  1  0  0  0  0
 12 13  1  0  0  0  0
 13 19  1  0  0  0  0
 13 20  1  0  0  0  0
 13 21  1  0  0  0  0
M  END
> <PUBCHEM_COMPOUND_CID>
10252

> <PUBCHEM_CONFORMER_RMSD>
0.6

> <PUBCHEM_CONFORMER_DIVERSEORDER>
1
8
13
11
2
7
10
5
9
3
12
4
6

> <PUBCHEM_MMFF94_PARTIAL_CHARGES>
19
1 -0.53
10 -0.15
11 -0.15
12 0.57
13 0.06
14 0.15
15 0.15
16 0.15
17 0.15
18 0.37
2 -0.57
22 0.45
3 -0.57
4 -0.49
5 0.09
6 0.08
7 -0.15
8 0.54
9 -0.15

> <PUBCHEM_EFFECTIVE_ROTOR_COUNT>
3

> <PUBCHEM_PHARMACOPHORE_FEATURES>
5
1 1 donor
1 2 acceptor
1 3 acceptor
1 4 donor
6 5 6 7 9 10 11 rings

> <PUBCHEM_HEAVY_ATOM_COUNT>
13

> <PUBCHEM_ATOM_DEF_STEREO_COUNT>
0

> <PUBCHEM_ATOM_UDEF_STEREO_COUNT>
0

> <PUBCHEM_BOND_DEF_STEREO_COUNT>
0

> <PUBCHEM_BOND_UDEF_STEREO_COUNT>
0

> <PUBCHEM_ISOTOPIC_ATOM_COUNT>
0

> <PUBCHEM_COMPONENT_COUNT>
1

> <PUBCHEM_CACTVS_TAUTO_COUNT>
11

> <PUBCHEM_CONFORMER_ID>
0000280C00000001

> <PUBCHEM_MMFF94_ENERGY>
34.9875

> <PUBCHEM_FEATURE_SELFOVERLAP>
25.375

> <PUBCHEM_SHAPE_FINGERPRINT>
10608611 8 18409453578793006528
12032990 46 18341608162514675587
12716758 59 18340207500295403058
12932764 1 17632018645256638360
13024252 1 17060336323480279011
13296908 3 18333730226025780694
14144814 61 18413390955585610922
14325111 11 18410856577020112334
14911166 2 18340778112934658797
15219456 202 18262806146491994224
16945 1 18341343261684527611
18186145 218 18201440319765965982
200 152 17458352939701909455
20201158 50 18334011696333133662
20279233 1 18334576828504357714
20281407 28 18337103480154470426
20281475 54 18336256851795378186
20645477 70 18113619014652010574
20871998 184 18334292042028851303
21501502 16 18337666412875411349
23402539 116 18334020488890571263
23403322 49 18190173667298583190
23552423 10 18058452002164641987
23559900 14 18409453622275163130
2748010 2 18196662795825206379
7364860 26 18050004398320407924
8809292 202 18412539920690481690
93112 12 18341328976655008166
9709674 26 18410007745691541742

> <PUBCHEM_SHAPE_MULTIPOLES>
244.94
6.31
1.86
0.68
4.54
0.2
-0.01
-1.78
-0.7
-0.54
-0.01
0.03
-0.01
0.59

> <PUBCHEM_SHAPE_SELFOVERLAP>
511.374

> <PUBCHEM_SHAPE_VOLUME>
138.2

> <PUBCHEM_COORDINATE_TYPE>
2
5
10

$$$$

