8732
  -OEChem-06261203032D

 40 39  0     0  0  0  0  0  0999 V2000
    6.0010    0.0000    0.0000 Cl  0  0  0  0  0  0  0  0  0  0  0  0
    0.0000    4.1200    0.0000 Cl  0  5  0  0  0  0  0  0  0  0  0  0
    4.7690    6.1200    0.0000 N   0  3  0  0  0  0  0  0  0  0  0  0
    6.5010    3.1200    0.0000 N   0  0  0  0  0  0  0  0  0  0  0  0
    7.3671    4.6200    0.0000 N   0  0  0  0  0  0  0  0  0  0  0  0
    4.7690    3.1200    0.0000 N   0  0  0  0  0  0  0  0  0  0  0  0
    4.7690    5.1200    0.0000 C   0  0  0  0  0  0  0  0  0  0  0  0
    5.6350    4.6200    0.0000 C   0  0  0  0  0  0  0  0  0  0  0  0
    3.9030    6.6200    0.0000 C   0  0  0  0  0  0  0  0  0  0  0  0
    8.2331    3.1200    0.0000 C   0  0  0  0  0  0  0  0  0  0  0  0
    5.6350    3.6200    0.0000 C   0  0  0  0  0  0  0  0  0  0  0  0
    7.3671    3.6200    0.0000 C   0  0  0  0  0  0  0  0  0  0  0  0
    9.0991    3.6200    0.0000 C   0  0  0  0  0  0  0  0  0  0  0  0
    5.6350    6.6200    0.0000 C   0  0  0  0  0  0  0  0  0  0  0  0
    6.5010    5.1200    0.0000 C   0  0  0  0  0  0  0  0  0  0  0  0
    3.9030    7.6200    0.0000 C   0  0  0  0  0  0  0  0  0  0  0  0
    3.0369    6.1200    0.0000 C   0  0  0  0  0  0  0  0  0  0  0  0
    5.6350    7.6200    0.0000 C   0  0  0  0  0  0  0  0  0  0  0  0
    4.7690    8.1200    0.0000 C   0  0  0  0  0  0  0  0  0  0  0  0
    9.9651    3.1200    0.0000 C   0  0  0  0  0  0  0  0  0  0  0  0
    4.1584    5.2277    0.0000 H   0  0  0  0  0  0  0  0  0  0  0  0
    4.5569    4.5374    0.0000 H   0  0  0  0  0  0  0  0  0  0  0  0
    7.8346    2.6450    0.0000 H   0  0  0  0  0  0  0  0  0  0  0  0
    8.6316    2.6450    0.0000 H   0  0  0  0  0  0  0  0  0  0  0  0
    9.4976    4.0950    0.0000 H   0  0  0  0  0  0  0  0  0  0  0  0
    8.7006    4.0950    0.0000 H   0  0  0  0  0  0  0  0  0  0  0  0
    6.1720    6.3100    0.0000 H   0  0  0  0  0  0  0  0  0  0  0  0
    6.5010    5.7400    0.0000 H   0  0  0  0  0  0  0  0  0  0  0  0
    3.3660    7.9300    0.0000 H   0  0  0  0  0  0  0  0  0  0  0  0
    2.7269    6.6569    0.0000 H   0  0  0  0  0  0  0  0  0  0  0  0
    2.5000    5.8100    0.0000 H   0  0  0  0  0  0  0  0  0  0  0  0
    3.3469    5.5831    0.0000 H   0  0  0  0  0  0  0  0  0  0  0  0
    6.1720    7.9300    0.0000 H   0  0  0  0  0  0  0  0  0  0  0  0
    4.7690    8.7400    0.0000 H   0  0  0  0  0  0  0  0  0  0  0  0
    9.6551    2.5831    0.0000 H   0  0  0  0  0  0  0  0  0  0  0  0
   10.5021    2.8100    0.0000 H   0  0  0  0  0  0  0  0  0  0  0  0
   10.2751    3.6569    0.0000 H   0  0  0  0  0  0  0  0  0  0  0  0
    4.7690    2.5000    0.0000 H   0  0  0  0  0  0  0  0  0  0  0  0
    4.2320    3.4300    0.0000 H   0  0  0  0  0  0  0  0  0  0  0  0
    7.0010    0.0000    0.0000 H   0  0  0  0  0  0  0  0  0  0  0  0
  1 40  1  0  0  0  0
  3  7  1  0  0  0  0
  3  9  1  0  0  0  0
  3 14  2  0  0  0  0
  4 11  2  0  0  0  0
  4 12  1  0  0  0  0
  5 12  2  0  0  0  0
  5 15  1  0  0  0  0
  6 11  1  0  0  0  0
  6 38  1  0  0  0  0
  6 39  1  0  0  0  0
  7  8  1  0  0  0  0
  7 21  1  0  0  0  0
  7 22  1  0  0  0  0
  8 11  1  0  0  0  0
  8 15  2  0  0  0  0
  9 16  2  0  0  0  0
  9 17  1  0  0  0  0
 10 12  1  0  0  0  0
 10 13  1  0  0  0  0
 10 23  1  0  0  0  0
 10 24  1  0  0  0  0
 13 20  1  0  0  0  0
 13 25  1  0  0  0  0
 13 26  1  0  0  0  0
 14 18  1  0  0  0  0
 14 27  1  0  0  0  0
 15 28  1  0  0  0  0
 16 19  1  0  0  0  0
 16 29  1  0  0  0  0
 17 30  1  0  0  0  0
 17 31  1  0  0  0  0
 17 32  1  0  0  0  0
 18 19  2  0  0  0  0
 18 33  1  0  0  0  0
 19 34  1  0  0  0  0
 20 35  1  0  0  0  0
 20 36  1  0  0  0  0
 20 37  1  0  0  0  0
M  CHG  2   2  -1   3   1
M  END
> <PUBCHEM_COMPOUND_CID>
8732

> <PUBCHEM_COMPOUND_CANONICALIZED>
1

> <PUBCHEM_CACTVS_COMPLEXITY>
246

> <PUBCHEM_CACTVS_HBOND_ACCEPTOR>
4

> <PUBCHEM_CACTVS_HBOND_DONOR>
2

> <PUBCHEM_CACTVS_ROTATABLE_BOND>
4

> <PUBCHEM_CACTVS_SUBSKEYS>
AAADceBzgAAGAAAAAAAAAAAAAAAAAAAAAAAsWAAAAAAAAAAB4AAAHAAQAAAADAjBHwQ/sJdMEACgAzZnZACCgCkxAqAJ2CA4ZJiIKOLA2dGEJAhogALIyCcQAAAAAAAAAAAAAAAAAAAAAAAAAAAAAAAAAA==

> <PUBCHEM_IUPAC_OPENEYE_NAME>
5-[(2-methylpyridin-1-ium-1-yl)methyl]-2-propyl-pyrimidin-4-amine chloride hydrochloride

> <PUBCHEM_IUPAC_CAS_NAME>
5-[(2-methyl-1-pyridin-1-iumyl)methyl]-2-propyl-4-pyrimidinamine chloride hydrochloride

> <PUBCHEM_IUPAC_NAME>
5-[(2-methylpyridin-1-ium-1-yl)methyl]-2-propylpyrimidin-4-amine chloride hydrochloride

> <PUBCHEM_IUPAC_SYSTEMATIC_NAME>
5-[(2-methylpyridin-1-ium-1-yl)methyl]-2-propyl-pyrimidin-4-amine chloride hydrochloride

> <PUBCHEM_IUPAC_TRADITIONAL_NAME>
[5-[(2-methylpyridin-1-ium-1-yl)methyl]-2-propyl-pyrimidin-4-yl]amine chloride hydrochloride

> <PUBCHEM_IUPAC_INCHI>
InChI=1S/C14H19N4.2ClH/c1-3-6-13-16-9-12(14(15)17-13)10-18-8-5-4-7-11(18)2;;/h4-5,7-9H,3,6,10H2,1-2H3,(H2,15,16,17);2*1H/q+1;;/p-1

> <PUBCHEM_IUPAC_INCHIKEY>
PJBQYZZKGNOKNJ-UHFFFAOYSA-M

> <PUBCHEM_EXACT_MASS>
314.106502

> <PUBCHEM_MOLECULAR_FORMULA>
C14H20Cl2N4

> <PUBCHEM_MOLECULAR_WEIGHT>
315.2414

> <PUBCHEM_OPENEYE_CAN_SMILES>
CCCC1=NC=C(C(=N1)N)C[N+]2=CC=CC=C2C.Cl.[Cl-]

> <PUBCHEM_OPENEYE_ISO_SMILES>
CCCC1=NC=C(C(=N1)N)C[N+]2=CC=CC=C2C.Cl.[Cl-]

> <PUBCHEM_CACTVS_TPSA>
55.7

> <PUBCHEM_MONOISOTOPIC_WEIGHT>
314.106502

> <PUBCHEM_TOTAL_CHARGE>
0

> <PUBCHEM_HEAVY_ATOM_COUNT>
20

> <PUBCHEM_ATOM_DEF_STEREO_COUNT>
0

> <PUBCHEM_ATOM_UDEF_STEREO_COUNT>
0

> <PUBCHEM_BOND_DEF_STEREO_COUNT>
0

> <PUBCHEM_BOND_UDEF_STEREO_COUNT>
0

> <PUBCHEM_ISOTOPIC_ATOM_COUNT>
0

> <PUBCHEM_COMPONENT_COUNT>
3

> <PUBCHEM_CACTVS_TAUTO_COUNT>
9

> <PUBCHEM_COORDINATE_TYPE>
1
5
255

> <PUBCHEM_BONDANNOTATIONS>
14  18  8
16  19  8
18  19  8
3  14  8
3  9  8
4  11  8
4  12  8
5  12  8
5  15  8
8  11  8
8  15  8
9  16  8

$$$$

