12214
  -OEChem-06261206403D

 23 22  0     1  0  0  0  0  0999 V2000
    0.3948   -0.1962   -0.0949 O   0  0  0  0  0  0  0  0  0  0  0  0
   -2.0534    0.3056   -1.3713 O   0  0  0  0  0  0  0  0  0  0  0  0
   -0.2792    2.0768   -0.1772 O   0  0  0  0  0  0  0  0  0  0  0  0
   -3.6899   -1.2661    0.2843 O   0  0  0  0  0  0  0  0  0  0  0  0
    2.1959    0.9708    0.7515 O   0  0  0  0  0  0  0  0  0  0  0  0
   -1.9505    0.3717    0.0519 C   0  0  2  0  0  0  0  0  0  0  0  0
   -0.5217    0.7990    0.4023 C   0  0  1  0  0  0  0  0  0  0  0  0
   -2.3387   -0.9855    0.6376 C   0  0  0  0  0  0  0  0  0  0  0  0
    2.5157   -1.1228   -0.4418 C   0  0  0  0  0  0  0  0  0  0  0  0
    1.7210    0.0169    0.1510 C   0  0  0  0  0  0  0  0  0  0  0  0
    4.0060   -0.9701   -0.1936 C   0  0  0  0  0  0  0  0  0  0  0  0
   -2.6673    1.1357    0.3752 H   0  0  0  0  0  0  0  0  0  0  0  0
   -0.4216    0.8719    1.4925 H   0  0  0  0  0  0  0  0  0  0  0  0
   -2.2614   -0.9832    1.7286 H   0  0  0  0  0  0  0  0  0  0  0  0
   -1.7203   -1.7948    0.2368 H   0  0  0  0  0  0  0  0  0  0  0  0
    2.3284   -1.1515   -1.5204 H   0  0  0  0  0  0  0  0  0  0  0  0
    2.1680   -2.0588    0.0081 H   0  0  0  0  0  0  0  0  0  0  0  0
   -1.8065    1.1782   -1.7228 H   0  0  0  0  0  0  0  0  0  0  0  0
    0.3969    2.5155    0.3665 H   0  0  0  0  0  0  0  0  0  0  0  0
    4.2251   -0.9415    0.8790 H   0  0  0  0  0  0  0  0  0  0  0  0
    4.5537   -1.8097   -0.6326 H   0  0  0  0  0  0  0  0  0  0  0  0
    4.3858   -0.0439   -0.6376 H   0  0  0  0  0  0  0  0  0  0  0  0
   -3.7451   -1.2552   -0.6866 H   0  0  0  0  0  0  0  0  0  0  0  0
  1  7  1  0  0  0  0
  1 10  1  0  0  0  0
  2  6  1  0  0  0  0
  2 18  1  0  0  0  0
  3  7  1  0  0  0  0
  3 19  1  0  0  0  0
  4  8  1  0  0  0  0
  4 23  1  0  0  0  0
  5 10  2  0  0  0  0
  6  7  1  0  0  0  0
  6  8  1  0  0  0  0
  6 12  1  0  0  0  0
  7 13  1  0  0  0  0
  8 14  1  0  0  0  0
  8 15  1  0  0  0  0
  9 10  1  0  0  0  0
  9 11  1  0  0  0  0
  9 16  1  0  0  0  0
  9 17  1  0  0  0  0
 11 20  1  0  0  0  0
 11 21  1  0  0  0  0
 11 22  1  0  0  0  0
M  END
> <PUBCHEM_COMPOUND_CID>
12214

> <PUBCHEM_CONFORMER_RMSD>
0.6

> <PUBCHEM_CONFORMER_DIVERSEORDER>
4
96
213
109
160
189
159
254
9
253
148
176
183
60
129
220
228
95
104
203
2
222
201
113
229
145
32
152
121
208
162
123
150
122
83
10
186
226
231
94
252
144
110
49
167
182
136
93
1
200
62
138
171
143
114
99
24
225
166
204
120
16
107
84
133
194
31
141
184
106
251
192
227
131
117
178
35
190
134
238
170
245
153
175
237
81
20
128
137
7
246
63
57
157
127
197
242
180
48
218
124
39
139
206
52
44
161
68
85
115
185
33
168
58
173
241
209
249
236
64
125
154
135
3
193
244
13
211
221
223
66
22
29
54
78
43
65
132
212
240
140
6
18
108
147
191
235
34
233
59
155
89
177
28
250
126
8
118
165
97
174
92
37
88
26
53
17
247
207
142
198
76
130
205
195
47
163
232
15
87
91
67
239
179
164
172
215
56
243
210
5
82
42
100
73
12
55
102
71
230
40
219
112
187
69
248
217
46
119
151
38
146
45
149
196
41
224
214
202
156
79
103
27
14
70
80
36
30
90
181
188
111
199
86
101
61
23
77
25
11
21
216
98
234
72
51
50
74
75
169
19
158
105
116

> <PUBCHEM_MMFF94_PARTIAL_CHARGES>
13
1 -0.43
10 0.66
18 0.4
19 0.4
2 -0.68
23 0.4
3 -0.68
4 -0.68
5 -0.57
6 0.28
7 0.56
8 0.28
9 0.06

> <PUBCHEM_EFFECTIVE_ROTOR_COUNT>
5

> <PUBCHEM_PHARMACOPHORE_FEATURES>
8
1 11 hydrophobe
1 2 acceptor
1 2 donor
1 3 acceptor
1 3 donor
1 4 acceptor
1 4 donor
1 5 acceptor

> <PUBCHEM_HEAVY_ATOM_COUNT>
11

> <PUBCHEM_ATOM_DEF_STEREO_COUNT>
0

> <PUBCHEM_ATOM_UDEF_STEREO_COUNT>
2

> <PUBCHEM_BOND_DEF_STEREO_COUNT>
0

> <PUBCHEM_BOND_UDEF_STEREO_COUNT>
0

> <PUBCHEM_ISOTOPIC_ATOM_COUNT>
0

> <PUBCHEM_COMPONENT_COUNT>
1

> <PUBCHEM_CACTVS_TAUTO_COUNT>
1

> <PUBCHEM_CONFORMER_ID>
00002FB600000004

> <PUBCHEM_MMFF94_ENERGY>
10.9339

> <PUBCHEM_FEATURE_SELFOVERLAP>
40.614

> <PUBCHEM_SHAPE_FINGERPRINT>
12032990 46 18410852148724467274
12716758 59 18059022794744293561
12897270 3 18341897436850951510
12932741 1 18342750623372079004
12932764 1 17275389836563019160
14390081 3 9007065651488876971
15775835 57 10592045743356350747
20201158 50 18410853282585537242
20281407 28 18335695087548310322
20653085 51 14835006276769812005
20711983 138 18410285913442675267
20711985 344 18196666304423616889
20871998 22 18340764828352905257
20871999 31 17989205962527875487
21028194 46 10663521708722876486
21061003 4 18409161095820072897
23552423 10 18201433701073715216
29004967 10 18337112276273898969

> <PUBCHEM_SHAPE_MULTIPOLES>
197.03
5.92
1.5
0.85
2.01
0.38
-0.15
-3.22
-0.07
-0.27
0.06
-0.26
0.03
0.56

> <PUBCHEM_SHAPE_SELFOVERLAP>
369.328

> <PUBCHEM_SHAPE_VOLUME>
121.8

> <PUBCHEM_COORDINATE_TYPE>
2
5
10

$$$$

