9263
  -OEChem-06261203332D

  8  8  0     0  0  0  0  0  0999 V2000
    2.8660   -1.0000    0.0000 N   0  0  0  0  0  0  0  0  0  0  0  0
    2.0000   -0.5000    0.0000 N   0  0  0  0  0  0  0  0  0  0  0  0
    3.7320    0.5000    0.0000 N   0  0  0  0  0  0  0  0  0  0  0  0
    2.8660    1.0000    0.0000 N   0  0  0  0  0  0  0  0  0  0  0  0
    3.7320   -0.5000    0.0000 C   0  0  0  0  0  0  0  0  0  0  0  0
    2.0000    0.5000    0.0000 C   0  0  0  0  0  0  0  0  0  0  0  0
    4.2690   -0.8100    0.0000 H   0  0  0  0  0  0  0  0  0  0  0  0
    1.4631    0.8100    0.0000 H   0  0  0  0  0  0  0  0  0  0  0  0
  1  2  2  0  0  0  0
  1  5  1  0  0  0  0
  2  6  1  0  0  0  0
  3  4  1  0  0  0  0
  3  5  2  0  0  0  0
  4  6  2  0  0  0  0
  5  7  1  0  0  0  0
  6  8  1  0  0  0  0
M  END
> <PUBCHEM_COMPOUND_CID>
9263

> <PUBCHEM_COMPOUND_CANONICALIZED>
1

> <PUBCHEM_CACTVS_COMPLEXITY>
26.5

> <PUBCHEM_CACTVS_HBOND_ACCEPTOR>
4

> <PUBCHEM_CACTVS_HBOND_DONOR>
0

> <PUBCHEM_CACTVS_ROTATABLE_BOND>
0

> <PUBCHEM_CACTVS_SUBSKEYS>
AAADcQBDgAAAAAAAAAAAAAAAAAAAAAAAAAAsAAAAAAAAAAABgAAAFAAIAAAAAAAAAAQFEAQAAAAiAAABIAAQAAIAgAAEAAAAAAAAAAAAAAAAAAAAAAAAAAAAAAAAAAAAAAAAAAAAAAAAAAAAAAAAAAAAAA==

> <PUBCHEM_IUPAC_OPENEYE_NAME>
1,2,4,5-tetrazine

> <PUBCHEM_IUPAC_CAS_NAME>
1,2,4,5-tetrazine

> <PUBCHEM_IUPAC_NAME>
1,2,4,5-tetrazine

> <PUBCHEM_IUPAC_SYSTEMATIC_NAME>
1,2,4,5-tetrazine

> <PUBCHEM_IUPAC_TRADITIONAL_NAME>
1,2,4,5-tetrazine

> <PUBCHEM_IUPAC_INCHI>
InChI=1S/C2H2N4/c1-3-5-2-6-4-1/h1-2H

> <PUBCHEM_IUPAC_INCHIKEY>
HTJMXYRLEDBSLT-UHFFFAOYSA-N

> <PUBCHEM_XLOGP3_AA>
-1.4

> <PUBCHEM_EXACT_MASS>
82.027946

> <PUBCHEM_MOLECULAR_FORMULA>
C2H2N4

> <PUBCHEM_MOLECULAR_WEIGHT>
82.06408

> <PUBCHEM_OPENEYE_CAN_SMILES>
C1=NN=CN=N1

> <PUBCHEM_OPENEYE_ISO_SMILES>
C1=NN=CN=N1

> <PUBCHEM_CACTVS_TPSA>
51.6

> <PUBCHEM_MONOISOTOPIC_WEIGHT>
82.027946

> <PUBCHEM_TOTAL_CHARGE>
0

> <PUBCHEM_HEAVY_ATOM_COUNT>
6

> <PUBCHEM_ATOM_DEF_STEREO_COUNT>
0

> <PUBCHEM_ATOM_UDEF_STEREO_COUNT>
0

> <PUBCHEM_BOND_DEF_STEREO_COUNT>
0

> <PUBCHEM_BOND_UDEF_STEREO_COUNT>
0

> <PUBCHEM_ISOTOPIC_ATOM_COUNT>
0

> <PUBCHEM_COMPONENT_COUNT>
1

> <PUBCHEM_CACTVS_TAUTO_COUNT>
1

> <PUBCHEM_COORDINATE_TYPE>
1
5
255

> <PUBCHEM_BONDANNOTATIONS>
1  2  8
1  5  8
2  6  8
3  4  8
3  5  8
4  6  8

$$$$

