6645
  -OEChem-06261201253D

 22 22  0     0  0  0  0  0  0999 V2000
    1.7748    0.0039    0.4352 S   0  0  0  0  0  0  0  0  0  0  0  0
    2.3989   -0.0039   -1.0810 O   0  0  0  0  0  0  0  0  0  0  0  0
    2.1103    1.2713    1.0668 O   0  0  0  0  0  0  0  0  0  0  0  0
    2.1409   -1.2589    1.0618 O   0  0  0  0  0  0  0  0  0  0  0  0
    0.0441    0.0009    0.2054 C   0  0  0  0  0  0  0  0  0  0  0  0
   -2.7214   -0.0023   -0.1612 C   0  0  0  0  0  0  0  0  0  0  0  0
   -0.6480    1.2080    0.1070 C   0  0  0  0  0  0  0  0  0  0  0  0
   -0.6467   -1.2080    0.1204 C   0  0  0  0  0  0  0  0  0  0  0  0
   -2.0307    1.2064   -0.0762 C   0  0  0  0  0  0  0  0  0  0  0  0
   -2.0295   -1.2096   -0.0629 C   0  0  0  0  0  0  0  0  0  0  0  0
   -4.1999   -0.0043   -0.3576 C   0  0  0  0  0  0  0  0  0  0  0  0
    3.8073   -0.0035   -1.2577 C   0  0  0  0  0  0  0  0  0  0  0  0
   -0.1308    2.1619    0.1617 H   0  0  0  0  0  0  0  0  0  0  0  0
   -0.1279   -2.1601    0.1866 H   0  0  0  0  0  0  0  0  0  0  0  0
   -2.5582    2.1533   -0.1550 H   0  0  0  0  0  0  0  0  0  0  0  0
   -2.5564   -2.1578   -0.1312 H   0  0  0  0  0  0  0  0  0  0  0  0
   -4.6596   -0.8806    0.1121 H   0  0  0  0  0  0  0  0  0  0  0  0
   -4.6601    0.8801    0.0959 H   0  0  0  0  0  0  0  0  0  0  0  0
   -4.4369   -0.0141   -1.4261 H   0  0  0  0  0  0  0  0  0  0  0  0
    4.2437   -0.9001   -0.8092 H   0  0  0  0  0  0  0  0  0  0  0  0
    4.2436    0.8914   -0.8055 H   0  0  0  0  0  0  0  0  0  0  0  0
    4.0240   -0.0012   -2.3289 H   0  0  0  0  0  0  0  0  0  0  0  0
  1  2  1  0  0  0  0
  1  3  2  0  0  0  0
  1  4  2  0  0  0  0
  1  5  1  0  0  0  0
  2 12  1  0  0  0  0
  5  7  2  0  0  0  0
  5  8  1  0  0  0  0
  6  9  2  0  0  0  0
  6 10  1  0  0  0  0
  6 11  1  0  0  0  0
  7  9  1  0  0  0  0
  7 13  1  0  0  0  0
  8 10  2  0  0  0  0
  8 14  1  0  0  0  0
  9 15  1  0  0  0  0
 10 16  1  0  0  0  0
 11 17  1  0  0  0  0
 11 18  1  0  0  0  0
 11 19  1  0  0  0  0
 12 20  1  0  0  0  0
 12 21  1  0  0  0  0
 12 22  1  0  0  0  0
M  END
> <PUBCHEM_COMPOUND_CID>
6645

> <PUBCHEM_CONFORMER_RMSD>
0.6

> <PUBCHEM_CONFORMER_DIVERSEORDER>
1

> <PUBCHEM_MMFF94_PARTIAL_CHARGES>
16
1 1.49
10 -0.15
11 0.14
12 0.28
13 0.15
14 0.15
15 0.15
16 0.15
2 -0.46
3 -0.65
4 -0.65
5 -0.01
6 -0.14
7 -0.15
8 -0.15
9 -0.15

> <PUBCHEM_EFFECTIVE_ROTOR_COUNT>
2

> <PUBCHEM_PHARMACOPHORE_FEATURES>
3
1 3 acceptor
1 4 acceptor
6 5 6 7 8 9 10 rings

> <PUBCHEM_HEAVY_ATOM_COUNT>
12

> <PUBCHEM_ATOM_DEF_STEREO_COUNT>
0

> <PUBCHEM_ATOM_UDEF_STEREO_COUNT>
0

> <PUBCHEM_BOND_DEF_STEREO_COUNT>
0

> <PUBCHEM_BOND_UDEF_STEREO_COUNT>
0

> <PUBCHEM_ISOTOPIC_ATOM_COUNT>
0

> <PUBCHEM_COMPONENT_COUNT>
1

> <PUBCHEM_CACTVS_TAUTO_COUNT>
1

> <PUBCHEM_CONFORMER_ID>
000019F500000001

> <PUBCHEM_MMFF94_ENERGY>
17.1182

> <PUBCHEM_FEATURE_SELFOVERLAP>
15.24

> <PUBCHEM_SHAPE_FINGERPRINT>
12032990 46 18261951852312467847
12897270 3 18410011022323683958
12932764 1 18410862057377270155
14325111 11 18410584997954136825
14911166 2 18409730655970775421
14993402 34 18131348605263383525
15219456 202 17895194338176893976
15310529 11 16702027486810041469
15775835 57 18201434809017067532
16945 1 18408891749941736779
18186145 218 18260272962349585521
19026448 4 15936418840402712195
19026448 5 15913337888022745857
20201158 50 17749381585673068094
20279233 1 17967251979506960870
20523700 14 18130786741630875583
20645464 45 18042138603751044850
20645476 183 17917706873084061247
20711985 344 17969491791877324552
21119208 17 18060129947245405598
21293036 1 18412257333200891613
23552423 10 18199752431846585421
23559900 14 18335696123368456972
2748010 2 18122352272418280395
3248919 1 17203618077004162955
369184 2 18337686260209059931
5084963 1 17845663684176059353
7364860 26 18336555992531818258
8030462 33 18343586252129989555

> <PUBCHEM_SHAPE_MULTIPOLES>
233.2
6.14
1.32
1
0.09
0
0.07
-0.02
1.88
0.2
-0.23
-0.98
0
0

> <PUBCHEM_SHAPE_SELFOVERLAP>
464.715

> <PUBCHEM_SHAPE_VOLUME>
138.7

> <PUBCHEM_COORDINATE_TYPE>
2
5
10

$$$$

