17396390
  -OEChem-06241222563D

 42 43  0     1  0  0  0  0  0999 V2000
    1.9532    2.6759   -1.4345 F   0  0  0  0  0  0  0  0  0  0  0  0
    4.4694    2.2884   -0.4370 F   0  0  0  0  0  0  0  0  0  0  0  0
   -2.6333    1.2008    2.1998 O   0  0  0  0  0  0  0  0  0  0  0  0
    1.1082   -2.2266   -1.3182 O   0  0  0  0  0  0  0  0  0  0  0  0
   -2.8099    2.3909   -0.6138 O   0  0  0  0  0  0  0  0  0  0  0  0
    0.3026   -3.8753    0.0934 O   0  0  0  0  0  0  0  0  0  0  0  0
   -2.4075   -0.2750    0.4036 N   0  0  0  0  0  0  0  0  0  0  0  0
   -0.7537   -0.0597    2.0807 N   0  0  0  0  0  0  0  0  0  0  0  0
    0.2032   -0.8970    1.3782 C   0  0  1  0  0  0  0  0  0  0  0  0
   -0.4606   -1.6367    0.2479 C   0  0  0  0  0  0  0  0  0  0  0  0
   -1.6907   -1.3193   -0.2099 C   0  0  0  0  0  0  0  0  0  0  0  0
    1.3378   -0.0501    0.8952 C   0  0  0  0  0  0  0  0  0  0  0  0
   -1.9770    0.3512    1.5895 C   0  0  0  0  0  0  0  0  0  0  0  0
   -3.6541    0.1799   -0.2172 C   0  0  0  0  0  0  0  0  0  0  0  0
   -2.3760   -2.0300   -1.3564 C   0  0  0  0  0  0  0  0  0  0  0  0
    0.3516   -2.7328   -0.3165 C   0  0  0  0  0  0  0  0  0  0  0  0
   -3.4001    1.2640   -1.2487 C   0  0  0  0  0  0  0  0  0  0  0  0
    1.1121    0.9373   -0.0638 C   0  0  0  0  0  0  0  0  0  0  0  0
    2.6214   -0.2477    1.4041 C   0  0  0  0  0  0  0  0  0  0  0  0
    2.1700    1.7274   -0.5137 C   0  0  0  0  0  0  0  0  0  0  0  0
    3.6793    0.5422    0.9539 C   0  0  0  0  0  0  0  0  0  0  0  0
    3.4536    1.5298   -0.0050 C   0  0  0  0  0  0  0  0  0  0  0  0
   -2.5571    3.4382   -1.5405 C   0  0  0  0  0  0  0  0  0  0  0  0
    1.9576   -3.1759   -1.9709 C   0  0  0  0  0  0  0  0  0  0  0  0
    0.5506   -1.6224    2.1247 H   0  0  0  0  0  0  0  0  0  0  0  0
   -0.4526    0.3477    2.9611 H   0  0  0  0  0  0  0  0  0  0  0  0
   -4.2352   -0.6461   -0.6341 H   0  0  0  0  0  0  0  0  0  0  0  0
   -4.2860    0.6040    0.5733 H   0  0  0  0  0  0  0  0  0  0  0  0
   -3.2887   -2.5300   -1.0157 H   0  0  0  0  0  0  0  0  0  0  0  0
   -1.7459   -2.8151   -1.7872 H   0  0  0  0  0  0  0  0  0  0  0  0
   -2.6095   -1.3503   -2.1800 H   0  0  0  0  0  0  0  0  0  0  0  0
   -2.7335    0.9078   -2.0411 H   0  0  0  0  0  0  0  0  0  0  0  0
   -4.3526    1.5620   -1.7018 H   0  0  0  0  0  0  0  0  0  0  0  0
    0.1235    1.1169   -0.4759 H   0  0  0  0  0  0  0  0  0  0  0  0
    2.8133   -1.0133    2.1510 H   0  0  0  0  0  0  0  0  0  0  0  0
    4.6789    0.3886    1.3495 H   0  0  0  0  0  0  0  0  0  0  0  0
   -1.8538    3.1068   -2.3107 H   0  0  0  0  0  0  0  0  0  0  0  0
   -3.4900    3.7774   -2.0010 H   0  0  0  0  0  0  0  0  0  0  0  0
   -2.1104    4.2760   -0.9986 H   0  0  0  0  0  0  0  0  0  0  0  0
    2.5132   -2.6524   -2.7534 H   0  0  0  0  0  0  0  0  0  0  0  0
    1.3580   -3.9656   -2.4339 H   0  0  0  0  0  0  0  0  0  0  0  0
    2.6711   -3.5992   -1.2572 H   0  0  0  0  0  0  0  0  0  0  0  0
  1 20  1  0  0  0  0
  2 22  1  0  0  0  0
  3 13  2  0  0  0  0
  4 16  1  0  0  0  0
  4 24  1  0  0  0  0
  5 17  1  0  0  0  0
  5 23  1  0  0  0  0
  6 16  2  0  0  0  0
  7 11  1  0  0  0  0
  7 13  1  0  0  0  0
  7 14  1  0  0  0  0
  8  9  1  0  0  0  0
  8 13  1  0  0  0  0
  8 26  1  0  0  0  0
  9 10  1  0  0  0  0
  9 12  1  0  0  0  0
  9 25  1  0  0  0  0
 10 11  2  0  0  0  0
 10 16  1  0  0  0  0
 11 15  1  0  0  0  0
 12 18  2  0  0  0  0
 12 19  1  0  0  0  0
 14 17  1  0  0  0  0
 14 27  1  0  0  0  0
 14 28  1  0  0  0  0
 15 29  1  0  0  0  0
 15 30  1  0  0  0  0
 15 31  1  0  0  0  0
 17 32  1  0  0  0  0
 17 33  1  0  0  0  0
 18 20  1  0  0  0  0
 18 34  1  0  0  0  0
 19 21  2  0  0  0  0
 19 35  1  0  0  0  0
 20 22  2  0  0  0  0
 21 22  1  0  0  0  0
 21 36  1  0  0  0  0
 23 37  1  0  0  0  0
 23 38  1  0  0  0  0
 23 39  1  0  0  0  0
 24 40  1  0  0  0  0
 24 41  1  0  0  0  0
 24 42  1  0  0  0  0
M  END
> <PUBCHEM_COMPOUND_CID>
17396390

> <PUBCHEM_CONFORMER_RMSD>
0.8

> <PUBCHEM_CONFORMER_DIVERSEORDER>
7
47
44
26
56
64
66
53
2
10
29
63
36
68
42
3
34
57
21
13
54
58
50
35
62
69
33
27
52
48
11
22
46
65
61
19
37
43
59
24
32
31
40
67
28
1
15
23
49
20
39
45
25
6
41
17
51
55
38
60
9
5
12
8
30
16
4
18
14

> <PUBCHEM_MMFF94_PARTIAL_CHARGES>
28
1 -0.19
10 -0.12
11 -0.03
12 -0.14
13 0.69
14 0.3
15 0.14
16 0.71
17 0.28
18 -0.15
19 -0.15
2 -0.19
20 0.19
21 -0.15
22 0.19
23 0.28
24 0.28
26 0.37
3 -0.57
34 0.15
35 0.15
36 0.15
4 -0.43
5 -0.56
6 -0.57
7 -0.47
8 -0.73
9 0.58

> <PUBCHEM_EFFECTIVE_ROTOR_COUNT>
6.6

> <PUBCHEM_PHARMACOPHORE_FEATURES>
6
1 3 acceptor
1 5 acceptor
1 6 acceptor
1 8 donor
6 12 18 19 20 21 22 rings
6 7 8 9 10 11 13 rings

> <PUBCHEM_HEAVY_ATOM_COUNT>
24

> <PUBCHEM_ATOM_DEF_STEREO_COUNT>
0

> <PUBCHEM_ATOM_UDEF_STEREO_COUNT>
1

> <PUBCHEM_BOND_DEF_STEREO_COUNT>
0

> <PUBCHEM_BOND_UDEF_STEREO_COUNT>
0

> <PUBCHEM_ISOTOPIC_ATOM_COUNT>
0

> <PUBCHEM_COMPONENT_COUNT>
1

> <PUBCHEM_CACTVS_TAUTO_COUNT>
2

> <PUBCHEM_CONFORMER_ID>
010972A600000007

> <PUBCHEM_MMFF94_ENERGY>
61.301

> <PUBCHEM_FEATURE_SELFOVERLAP>
30.447

> <PUBCHEM_SHAPE_FINGERPRINT>
11221954 11 17987519393316916133
12422481 6 17834434415478295034
12539773 59 16682544991059320033
133893 2 18044080474461741083
13994607 96 17273407262421359356
14181834 199 17825684509901527619
15163728 17 18271236213842847284
16752209 62 17972044634691818418
16945 1 16524130057500952627
17492 54 17838910235183016783
18981168 100 18198326528658668631
21197605 99 18131072697198142133
21524375 3 18340767035660270507
22907989 373 17686044012270454366
23114952 82 18189338042571343663
23419403 2 17766243816166040977
23559900 14 17459192889893239568
26353 1 16748206678644860918
5081480 168 17756974976315349237
5939293 188 16976767100118681493
90525 40 18265330599678078762

> <PUBCHEM_SHAPE_MULTIPOLES>
445.92
6.13
4.02
1.87
0.69
1.24
-0.33
-4.79
0.92
0.66
2.7
-0.43
-0.02
0.56

> <PUBCHEM_SHAPE_SELFOVERLAP>
941.311

> <PUBCHEM_SHAPE_VOLUME>
251.9

> <PUBCHEM_COORDINATE_TYPE>
2
5
10

$$$$

