5420
  -OEChem-06261200413D

 53 52  0     0  0  0  0  0  0999 V2000
   -1.5109    0.1212    0.2793 P   0  0  0  0  0  0  0  0  0  0  0  0
    1.4181    0.1572   -0.2095 P   0  0  0  0  0  0  0  0  0  0  0  0
   -0.0427   -0.5282    0.0079 O   0  0  0  0  0  0  0  0  0  0  0  0
   -1.4733    1.0128    1.4970 O   0  0  0  0  0  0  0  0  0  0  0  0
    1.3686    1.1486   -1.3472 O   0  0  0  0  0  0  0  0  0  0  0  0
   -2.5336   -1.1855    0.3989 N   0  0  0  0  0  0  0  0  0  0  0  0
   -1.8948    0.8864   -1.1470 N   0  0  0  0  0  0  0  0  0  0  0  0
    2.4553   -1.1222   -0.4335 N   0  0  0  0  0  0  0  0  0  0  0  0
    1.8006    0.8024    1.2750 N   0  0  0  0  0  0  0  0  0  0  0  0
   -2.4324   -2.0576    1.5600 C   0  0  0  0  0  0  0  0  0  0  0  0
   -3.0509    1.7689   -1.1809 C   0  0  0  0  0  0  0  0  0  0  0  0
    2.3673   -1.9007   -1.6588 C   0  0  0  0  0  0  0  0  0  0  0  0
    2.9487    1.6896    1.3805 C   0  0  0  0  0  0  0  0  0  0  0  0
   -1.4245   -3.1730    1.2978 C   0  0  0  0  0  0  0  0  0  0  0  0
   -3.8085   -2.6284    1.8879 C   0  0  0  0  0  0  0  0  0  0  0  0
   -3.6844    1.7578   -2.5692 C   0  0  0  0  0  0  0  0  0  0  0  0
   -2.6252    3.1789   -0.7840 C   0  0  0  0  0  0  0  0  0  0  0  0
    2.7702   -3.3489   -1.3956 C   0  0  0  0  0  0  0  0  0  0  0  0
    3.2562   -1.2699   -2.7260 C   0  0  0  0  0  0  0  0  0  0  0  0
    3.5873    1.5667    2.7611 C   0  0  0  0  0  0  0  0  0  0  0  0
    2.5088    3.1241    1.1060 C   0  0  0  0  0  0  0  0  0  0  0  0
   -2.1003   -1.4794    2.4301 H   0  0  0  0  0  0  0  0  0  0  0  0
   -3.8063    1.4136   -0.4702 H   0  0  0  0  0  0  0  0  0  0  0  0
    1.3312   -1.9055   -2.0175 H   0  0  0  0  0  0  0  0  0  0  0  0
    3.7052    1.4041    0.6400 H   0  0  0  0  0  0  0  0  0  0  0  0
   -2.6800   -1.7407   -0.4435 H   0  0  0  0  0  0  0  0  0  0  0  0
   -1.1237    1.3116   -1.6612 H   0  0  0  0  0  0  0  0  0  0  0  0
    3.4342   -0.9711   -0.1917 H   0  0  0  0  0  0  0  0  0  0  0  0
    1.0277    1.1750    1.8260 H   0  0  0  0  0  0  0  0  0  0  0  0
   -1.6986   -3.7666    0.4184 H   0  0  0  0  0  0  0  0  0  0  0  0
   -0.4165   -2.7786    1.1399 H   0  0  0  0  0  0  0  0  0  0  0  0
   -1.3751   -3.8538    2.1548 H   0  0  0  0  0  0  0  0  0  0  0  0
   -4.2016   -3.2320    1.0621 H   0  0  0  0  0  0  0  0  0  0  0  0
   -4.5269   -1.8267    2.0928 H   0  0  0  0  0  0  0  0  0  0  0  0
   -3.7609   -3.2666    2.7769 H   0  0  0  0  0  0  0  0  0  0  0  0
   -2.9842    2.1126   -3.3338 H   0  0  0  0  0  0  0  0  0  0  0  0
   -4.0025    0.7464   -2.8453 H   0  0  0  0  0  0  0  0  0  0  0  0
   -4.5682    2.4042   -2.5966 H   0  0  0  0  0  0  0  0  0  0  0  0
   -1.8730    3.5821   -1.4718 H   0  0  0  0  0  0  0  0  0  0  0  0
   -2.2063    3.2069    0.2266 H   0  0  0  0  0  0  0  0  0  0  0  0
   -3.4855    3.8571   -0.7995 H   0  0  0  0  0  0  0  0  0  0  0  0
    3.8044   -3.4208   -1.0404 H   0  0  0  0  0  0  0  0  0  0  0  0
    2.1205   -3.8034   -0.6394 H   0  0  0  0  0  0  0  0  0  0  0  0
    2.6862   -3.9463   -2.3098 H   0  0  0  0  0  0  0  0  0  0  0  0
    4.3067   -1.2460   -2.4143 H   0  0  0  0  0  0  0  0  0  0  0  0
    2.9489   -0.2449   -2.9547 H   0  0  0  0  0  0  0  0  0  0  0  0
    3.2003   -1.8428   -3.6582 H   0  0  0  0  0  0  0  0  0  0  0  0
    2.8864    1.8484    3.5550 H   0  0  0  0  0  0  0  0  0  0  0  0
    3.9159    0.5385    2.9493 H   0  0  0  0  0  0  0  0  0  0  0  0
    4.4650    2.2170    2.8410 H   0  0  0  0  0  0  0  0  0  0  0  0
    1.7553    3.4602    1.8276 H   0  0  0  0  0  0  0  0  0  0  0  0
    2.0863    3.2339    0.1025 H   0  0  0  0  0  0  0  0  0  0  0  0
    3.3629    3.8066    1.1769 H   0  0  0  0  0  0  0  0  0  0  0  0
  1  3  1  0  0  0  0
  1  4  2  0  0  0  0
  1  6  1  0  0  0  0
  1  7  1  0  0  0  0
  2  3  1  0  0  0  0
  2  5  2  0  0  0  0
  2  8  1  0  0  0  0
  2  9  1  0  0  0  0
  6 10  1  0  0  0  0
  6 26  1  0  0  0  0
  7 11  1  0  0  0  0
  7 27  1  0  0  0  0
  8 12  1  0  0  0  0
  8 28  1  0  0  0  0
  9 13  1  0  0  0  0
  9 29  1  0  0  0  0
 10 14  1  0  0  0  0
 10 15  1  0  0  0  0
 10 22  1  0  0  0  0
 11 16  1  0  0  0  0
 11 17  1  0  0  0  0
 11 23  1  0  0  0  0
 12 18  1  0  0  0  0
 12 19  1  0  0  0  0
 12 24  1  0  0  0  0
 13 20  1  0  0  0  0
 13 21  1  0  0  0  0
 13 25  1  0  0  0  0
 14 30  1  0  0  0  0
 14 31  1  0  0  0  0
 14 32  1  0  0  0  0
 15 33  1  0  0  0  0
 15 34  1  0  0  0  0
 15 35  1  0  0  0  0
 16 36  1  0  0  0  0
 16 37  1  0  0  0  0
 16 38  1  0  0  0  0
 17 39  1  0  0  0  0
 17 40  1  0  0  0  0
 17 41  1  0  0  0  0
 18 42  1  0  0  0  0
 18 43  1  0  0  0  0
 18 44  1  0  0  0  0
 19 45  1  0  0  0  0
 19 46  1  0  0  0  0
 19 47  1  0  0  0  0
 20 48  1  0  0  0  0
 20 49  1  0  0  0  0
 20 50  1  0  0  0  0
 21 51  1  0  0  0  0
 21 52  1  0  0  0  0
 21 53  1  0  0  0  0
M  END
> <PUBCHEM_COMPOUND_CID>
5420

> <PUBCHEM_CONFORMER_RMSD>
1

> <PUBCHEM_CONFORMER_DIVERSEORDER>
1
28
81
82
72
22
52
7
19
70
54
39
12
86
29
66
27
9
51
10
73
79
83
64
33
67
21
3
49
58
2
14
48
63
44
62
30
37
26
56
69
34
53
23
59
45
5
18
40
17
20
38
65
84
24
36
32
55
68
71
8
75
13
77
50
25
15
47
16
74
31
11
46
57
61
78
76
43
42
35
85
80
41
60
4
6

> <PUBCHEM_MMFF94_PARTIAL_CHARGES>
17
1 1.51
10 0.27
11 0.27
12 0.27
13 0.27
2 1.51
26 0.36
27 0.36
28 0.36
29 0.36
3 -0.54
4 -0.7
5 -0.7
6 -0.9
7 -0.9
8 -0.9
9 -0.9

> <PUBCHEM_EFFECTIVE_ROTOR_COUNT>
10

> <PUBCHEM_PHARMACOPHORE_FEATURES>
4
3 10 14 15 hydrophobe
3 11 16 17 hydrophobe
3 12 18 19 hydrophobe
3 13 20 21 hydrophobe

> <PUBCHEM_HEAVY_ATOM_COUNT>
21

> <PUBCHEM_ATOM_DEF_STEREO_COUNT>
0

> <PUBCHEM_ATOM_UDEF_STEREO_COUNT>
0

> <PUBCHEM_BOND_DEF_STEREO_COUNT>
0

> <PUBCHEM_BOND_UDEF_STEREO_COUNT>
0

> <PUBCHEM_ISOTOPIC_ATOM_COUNT>
0

> <PUBCHEM_COMPONENT_COUNT>
1

> <PUBCHEM_CACTVS_TAUTO_COUNT>
3

> <PUBCHEM_CONFORMER_ID>
0000152C00000001

> <PUBCHEM_MMFF94_ENERGY>
-19.1852

> <PUBCHEM_FEATURE_SELFOVERLAP>
20.297

> <PUBCHEM_SHAPE_FINGERPRINT>
12160290 23 17775281673546089985
12549972 3 18335699506816242827
12788726 201 17417242122761712051
133893 2 17240486918334517124
14022347 108 17343759535848037787
18915476 22 18113340790653948870
20600515 1 17702409336712514764
20671657 53 17243594275301321748
20693207 138 18336531785790156911
21285901 2 18270399365921243239
22907989 373 17987213643480357327
23419403 2 18260535736606062199
23526113 38 18190747633531401454
23557571 272 18343024354797262973
23559900 14 18192970682860472019
23598288 3 17764621745011359112
2748010 2 18409163303169512319
6049 1 18337658772070264175
621550 34 18191579757580200267
621550 5 17832658566090478566
633830 44 16155386447867494160
7615 1 16056605326294070525
81228 2 18130779019938807187
88987 49 17775007898728270789
9981440 41 17825422654403860976

> <PUBCHEM_SHAPE_MULTIPOLES>
402.34
7.07
4.38
2.88
0.85
1.02
-0.4
-0.54
-0.26
0.63
0.45
-1
0.1
6.46

> <PUBCHEM_SHAPE_SELFOVERLAP>
718.423

> <PUBCHEM_SHAPE_VOLUME>
262.8

> <PUBCHEM_COORDINATE_TYPE>
2
5
10

$$$$

