14037
  -OEChem-06241222412D

 50 49  0     0  0  0  0  0  0999 V2000
    3.7320   -0.7500    0.0000 O   0  0  0  0  0  0  0  0  0  0  0  0
    9.7942    0.7500    0.0000 O   0  0  0  0  0  0  0  0  0  0  0  0
    4.5981   -1.2500    0.0000 O   0  0  0  0  0  0  0  0  0  0  0  0
    8.9282    1.2500    0.0000 O   0  0  0  0  0  0  0  0  0  0  0  0
    2.8660   -1.2500    0.0000 C   0  0  0  0  0  0  0  0  0  0  0  0
   10.6603    1.2500    0.0000 C   0  0  0  0  0  0  0  0  0  0  0  0
    5.4641   -0.7500    0.0000 C   0  0  0  0  0  0  0  0  0  0  0  0
    8.0622    0.7500    0.0000 C   0  0  0  0  0  0  0  0  0  0  0  0
    2.0000   -1.7500    0.0000 C   0  0  0  0  0  0  0  0  0  0  0  0
    2.3660   -0.3840    0.0000 C   0  0  0  0  0  0  0  0  0  0  0  0
    3.3660   -2.1160    0.0000 C   0  0  0  0  0  0  0  0  0  0  0  0
   11.5263    1.7500    0.0000 C   0  0  0  0  0  0  0  0  0  0  0  0
   11.1603    0.3840    0.0000 C   0  0  0  0  0  0  0  0  0  0  0  0
   10.1603    2.1160    0.0000 C   0  0  0  0  0  0  0  0  0  0  0  0
    4.9641    0.1160    0.0000 C   0  0  0  0  0  0  0  0  0  0  0  0
    5.9641   -1.6160    0.0000 C   0  0  0  0  0  0  0  0  0  0  0  0
    8.5622   -0.1160    0.0000 C   0  0  0  0  0  0  0  0  0  0  0  0
    7.5622    1.6160    0.0000 C   0  0  0  0  0  0  0  0  0  0  0  0
    6.3301   -0.2500    0.0000 C   0  0  0  0  0  0  0  0  0  0  0  0
    7.1962    0.2500    0.0000 C   0  0  0  0  0  0  0  0  0  0  0  0
   10.6972    2.4260    0.0000 H   0  0  0  0  0  0  0  0  0  0  0  0
    9.8503    2.6530    0.0000 H   0  0  0  0  0  0  0  0  0  0  0  0
    9.6233    1.8060    0.0000 H   0  0  0  0  0  0  0  0  0  0  0  0
   10.6233    0.0740    0.0000 H   0  0  0  0  0  0  0  0  0  0  0  0
   11.4703   -0.1530    0.0000 H   0  0  0  0  0  0  0  0  0  0  0  0
   11.6972    0.6940    0.0000 H   0  0  0  0  0  0  0  0  0  0  0  0
   11.8363    1.2131    0.0000 H   0  0  0  0  0  0  0  0  0  0  0  0
   12.0632    2.0600    0.0000 H   0  0  0  0  0  0  0  0  0  0  0  0
   11.2163    2.2869    0.0000 H   0  0  0  0  0  0  0  0  0  0  0  0
    2.8291   -2.4260    0.0000 H   0  0  0  0  0  0  0  0  0  0  0  0
    3.6760   -2.6530    0.0000 H   0  0  0  0  0  0  0  0  0  0  0  0
    3.9030   -1.8060    0.0000 H   0  0  0  0  0  0  0  0  0  0  0  0
    2.9030   -0.0740    0.0000 H   0  0  0  0  0  0  0  0  0  0  0  0
    2.0560    0.1530    0.0000 H   0  0  0  0  0  0  0  0  0  0  0  0
    1.8291   -0.6940    0.0000 H   0  0  0  0  0  0  0  0  0  0  0  0
    1.6900   -1.2131    0.0000 H   0  0  0  0  0  0  0  0  0  0  0  0
    1.4631   -2.0600    0.0000 H   0  0  0  0  0  0  0  0  0  0  0  0
    2.3100   -2.2869    0.0000 H   0  0  0  0  0  0  0  0  0  0  0  0
    5.5010    0.4260    0.0000 H   0  0  0  0  0  0  0  0  0  0  0  0
    4.6541    0.6530    0.0000 H   0  0  0  0  0  0  0  0  0  0  0  0
    4.4272   -0.1940    0.0000 H   0  0  0  0  0  0  0  0  0  0  0  0
    5.4272   -1.9260    0.0000 H   0  0  0  0  0  0  0  0  0  0  0  0
    6.2741   -2.1530    0.0000 H   0  0  0  0  0  0  0  0  0  0  0  0
    6.5010   -1.3060    0.0000 H   0  0  0  0  0  0  0  0  0  0  0  0
    8.0252   -0.4260    0.0000 H   0  0  0  0  0  0  0  0  0  0  0  0
    8.8722   -0.6530    0.0000 H   0  0  0  0  0  0  0  0  0  0  0  0
    9.0991    0.1940    0.0000 H   0  0  0  0  0  0  0  0  0  0  0  0
    8.0991    1.9260    0.0000 H   0  0  0  0  0  0  0  0  0  0  0  0
    7.2522    2.1530    0.0000 H   0  0  0  0  0  0  0  0  0  0  0  0
    7.0252    1.3060    0.0000 H   0  0  0  0  0  0  0  0  0  0  0  0
  1  3  1  0  0  0  0
  1  5  1  0  0  0  0
  2  4  1  0  0  0  0
  2  6  1  0  0  0  0
  3  7  1  0  0  0  0
  4  8  1  0  0  0  0
  5  9  1  0  0  0  0
  5 10  1  0  0  0  0
  5 11  1  0  0  0  0
  6 12  1  0  0  0  0
  6 13  1  0  0  0  0
  6 14  1  0  0  0  0
  7 15  1  0  0  0  0
  7 16  1  0  0  0  0
  7 19  1  0  0  0  0
  8 17  1  0  0  0  0
  8 18  1  0  0  0  0
  8 20  1  0  0  0  0
  9 36  1  0  0  0  0
  9 37  1  0  0  0  0
  9 38  1  0  0  0  0
 10 33  1  0  0  0  0
 10 34  1  0  0  0  0
 10 35  1  0  0  0  0
 11 30  1  0  0  0  0
 11 31  1  0  0  0  0
 11 32  1  0  0  0  0
 12 27  1  0  0  0  0
 12 28  1  0  0  0  0
 12 29  1  0  0  0  0
 13 24  1  0  0  0  0
 13 25  1  0  0  0  0
 13 26  1  0  0  0  0
 14 21  1  0  0  0  0
 14 22  1  0  0  0  0
 14 23  1  0  0  0  0
 15 39  1  0  0  0  0
 15 40  1  0  0  0  0
 15 41  1  0  0  0  0
 16 42  1  0  0  0  0
 16 43  1  0  0  0  0
 16 44  1  0  0  0  0
 17 45  1  0  0  0  0
 17 46  1  0  0  0  0
 17 47  1  0  0  0  0
 18 48  1  0  0  0  0
 18 49  1  0  0  0  0
 18 50  1  0  0  0  0
 19 20  3  0  0  0  0
M  END
> <PUBCHEM_COMPOUND_CID>
14037

> <PUBCHEM_COMPOUND_CANONICALIZED>
1

> <PUBCHEM_CACTVS_COMPLEXITY>
335

> <PUBCHEM_CACTVS_HBOND_ACCEPTOR>
4

> <PUBCHEM_CACTVS_HBOND_DONOR>
0

> <PUBCHEM_CACTVS_ROTATABLE_BOND>
8

> <PUBCHEM_CACTVS_SUBSKEYS>
AAADceB4OAAAAAAAAAAAAAAAAAAAAAAAAAAAAAAAAAAAAAAAAAAAGgAABAAADESAgAACAAAAAABAEAAAAAgAAAAAAAAAAAAAAAAAAAAAAAAAAAAAAAAAAAAAAAAAAAAAAAAAAAAAAAAAAAAAAAAAAAAAAA==

> <PUBCHEM_IUPAC_OPENEYE_NAME>
2,5-bis(tert-butylperoxy)-2,5-dimethyl-hex-3-yne

> <PUBCHEM_IUPAC_CAS_NAME>
2,5-bis(tert-butyldioxy)-2,5-dimethyl-3-hexyne

> <PUBCHEM_IUPAC_NAME>
2,5-bis(tert-butylperoxy)-2,5-dimethylhex-3-yne

> <PUBCHEM_IUPAC_SYSTEMATIC_NAME>
2,5-bis(tert-butylperoxy)-2,5-dimethyl-hex-3-yne

> <PUBCHEM_IUPAC_TRADITIONAL_NAME>
2,5-bis(tert-butylperoxy)-2,5-dimethyl-hex-3-yne

> <PUBCHEM_IUPAC_INCHI>
InChI=1S/C16H30O4/c1-13(2,3)17-19-15(7,8)11-12-16(9,10)20-18-14(4,5)6/h1-10H3

> <PUBCHEM_IUPAC_INCHIKEY>
ODBCKCWTWALFKM-UHFFFAOYSA-N

> <PUBCHEM_XLOGP3_AA>
3.2

> <PUBCHEM_EXACT_MASS>
286.214409

> <PUBCHEM_MOLECULAR_FORMULA>
C16H30O4

> <PUBCHEM_MOLECULAR_WEIGHT>
286.407

> <PUBCHEM_OPENEYE_CAN_SMILES>
CC(C)(C)OOC(C)(C)C#CC(C)(C)OOC(C)(C)C

> <PUBCHEM_OPENEYE_ISO_SMILES>
CC(C)(C)OOC(C)(C)C#CC(C)(C)OOC(C)(C)C

> <PUBCHEM_CACTVS_TPSA>
36.9

> <PUBCHEM_MONOISOTOPIC_WEIGHT>
286.214409

> <PUBCHEM_TOTAL_CHARGE>
0

> <PUBCHEM_HEAVY_ATOM_COUNT>
20

> <PUBCHEM_ATOM_DEF_STEREO_COUNT>
0

> <PUBCHEM_ATOM_UDEF_STEREO_COUNT>
0

> <PUBCHEM_BOND_DEF_STEREO_COUNT>
0

> <PUBCHEM_BOND_UDEF_STEREO_COUNT>
0

> <PUBCHEM_ISOTOPIC_ATOM_COUNT>
0

> <PUBCHEM_COMPONENT_COUNT>
1

> <PUBCHEM_CACTVS_TAUTO_COUNT>
1

> <PUBCHEM_COORDINATE_TYPE>
1
5
255

$$$$

