17396230
  -OEChem-06241222553D

 49 51  0     0  0  0  0  0  0999 V2000
    2.3813   -0.5768   -1.9096 O   0  0  0  0  0  0  0  0  0  0  0  0
    2.0259   -0.5901    2.6781 O   0  0  0  0  0  0  0  0  0  0  0  0
   -0.0506    1.1479    0.2966 O   0  0  0  0  0  0  0  0  0  0  0  0
   -5.7438    1.5171    0.3603 O   0  0  0  0  0  0  0  0  0  0  0  0
   -6.4077   -0.2648   -0.9204 O   0  0  0  0  0  0  0  0  0  0  0  0
    3.7667   -0.0446    1.2284 N   0  0  0  0  0  0  0  0  0  0  0  0
    1.8355   -0.7253    0.3522 N   0  0  0  0  0  0  0  0  0  0  0  0
   -2.4374   -1.5501   -0.0554 N   0  0  0  0  0  0  0  0  0  0  0  0
    4.0204    0.0054   -0.1979 C   0  0  0  0  0  0  0  0  0  0  0  0
    5.1189   -0.9791   -0.6100 C   0  0  0  0  0  0  0  0  0  0  0  0
    4.3098    1.4337   -0.6692 C   0  0  0  0  0  0  0  0  0  0  0  0
    6.5099   -0.4931   -0.2035 C   0  0  0  0  0  0  0  0  0  0  0  0
    5.7066    1.9023   -0.2620 C   0  0  0  0  0  0  0  0  0  0  0  0
    6.7843    0.9197   -0.7108 C   0  0  0  0  0  0  0  0  0  0  0  0
    2.6584   -0.4647   -0.7217 C   0  0  0  0  0  0  0  0  0  0  0  0
    2.4782   -0.4727    1.5467 C   0  0  0  0  0  0  0  0  0  0  0  0
    0.4656   -1.1871    0.2464 C   0  0  0  0  0  0  0  0  0  0  0  0
   -0.4874   -0.0003    0.1947 C   0  0  0  0  0  0  0  0  0  0  0  0
   -1.9244   -0.2829    0.0415 C   0  0  0  0  0  0  0  0  0  0  0  0
   -2.9754    0.6044   -0.0309 C   0  0  0  0  0  0  0  0  0  0  0  0
   -4.1620   -0.1561   -0.1761 C   0  0  0  0  0  0  0  0  0  0  0  0
   -3.7999   -1.4849   -0.1878 C   0  0  0  0  0  0  0  0  0  0  0  0
   -2.8838    2.0785    0.0309 C   0  0  0  0  0  0  0  0  0  0  0  0
   -4.6092   -2.7130   -0.3120 C   0  0  0  0  0  0  0  0  0  0  0  0
   -5.5103    0.3234   -0.2927 C   0  0  0  0  0  0  0  0  0  0  0  0
   -7.0697    2.0531    0.2844 C   0  0  0  0  0  0  0  0  0  0  0  0
    4.9385   -1.9693   -0.1724 H   0  0  0  0  0  0  0  0  0  0  0  0
    5.1000   -1.1172   -1.6993 H   0  0  0  0  0  0  0  0  0  0  0  0
    4.2277    1.4846   -1.7630 H   0  0  0  0  0  0  0  0  0  0  0  0
    3.5625    2.1331   -0.2730 H   0  0  0  0  0  0  0  0  0  0  0  0
    6.6043   -0.5143    0.8889 H   0  0  0  0  0  0  0  0  0  0  0  0
    7.2674   -1.1789   -0.5995 H   0  0  0  0  0  0  0  0  0  0  0  0
    5.9037    2.8880   -0.6988 H   0  0  0  0  0  0  0  0  0  0  0  0
    5.7530    2.0240    0.8269 H   0  0  0  0  0  0  0  0  0  0  0  0
    6.8345    0.9098   -1.8066 H   0  0  0  0  0  0  0  0  0  0  0  0
    7.7627    1.2565   -0.3500 H   0  0  0  0  0  0  0  0  0  0  0  0
    4.4537    0.2083    1.9320 H   0  0  0  0  0  0  0  0  0  0  0  0
    0.2266   -1.7973    1.1231 H   0  0  0  0  0  0  0  0  0  0  0  0
    0.3601   -1.7715   -0.6729 H   0  0  0  0  0  0  0  0  0  0  0  0
   -1.8994   -2.4055   -0.0326 H   0  0  0  0  0  0  0  0  0  0  0  0
   -3.6893    2.5605   -0.5314 H   0  0  0  0  0  0  0  0  0  0  0  0
   -1.9576    2.4525   -0.4139 H   0  0  0  0  0  0  0  0  0  0  0  0
   -2.9319    2.4223    1.0690 H   0  0  0  0  0  0  0  0  0  0  0  0
   -5.0103   -2.8057   -1.3264 H   0  0  0  0  0  0  0  0  0  0  0  0
   -4.0203   -3.6118   -0.1007 H   0  0  0  0  0  0  0  0  0  0  0  0
   -5.4490   -2.6963    0.3902 H   0  0  0  0  0  0  0  0  0  0  0  0
   -7.3329    2.2608   -0.7570 H   0  0  0  0  0  0  0  0  0  0  0  0
   -7.7840    1.3567    0.7332 H   0  0  0  0  0  0  0  0  0  0  0  0
   -7.0903    2.9903    0.8466 H   0  0  0  0  0  0  0  0  0  0  0  0
  1 15  2  0  0  0  0
  2 16  2  0  0  0  0
  3 18  2  0  0  0  0
  4 25  1  0  0  0  0
  4 26  1  0  0  0  0
  5 25  2  0  0  0  0
  6  9  1  0  0  0  0
  6 16  1  0  0  0  0
  6 37  1  0  0  0  0
  7 15  1  0  0  0  0
  7 16  1  0  0  0  0
  7 17  1  0  0  0  0
  8 19  1  0  0  0  0
  8 22  1  0  0  0  0
  8 40  1  0  0  0  0
  9 10  1  0  0  0  0
  9 11  1  0  0  0  0
  9 15  1  0  0  0  0
 10 12  1  0  0  0  0
 10 27  1  0  0  0  0
 10 28  1  0  0  0  0
 11 13  1  0  0  0  0
 11 29  1  0  0  0  0
 11 30  1  0  0  0  0
 12 14  1  0  0  0  0
 12 31  1  0  0  0  0
 12 32  1  0  0  0  0
 13 14  1  0  0  0  0
 13 33  1  0  0  0  0
 13 34  1  0  0  0  0
 14 35  1  0  0  0  0
 14 36  1  0  0  0  0
 17 18  1  0  0  0  0
 17 38  1  0  0  0  0
 17 39  1  0  0  0  0
 18 19  1  0  0  0  0
 19 20  2  0  0  0  0
 20 21  1  0  0  0  0
 20 23  1  0  0  0  0
 21 22  2  0  0  0  0
 21 25  1  0  0  0  0
 22 24  1  0  0  0  0
 23 41  1  0  0  0  0
 23 42  1  0  0  0  0
 23 43  1  0  0  0  0
 24 44  1  0  0  0  0
 24 45  1  0  0  0  0
 24 46  1  0  0  0  0
 26 47  1  0  0  0  0
 26 48  1  0  0  0  0
 26 49  1  0  0  0  0
M  END
> <PUBCHEM_COMPOUND_CID>
17396230

> <PUBCHEM_CONFORMER_RMSD>
1

> <PUBCHEM_CONFORMER_DIVERSEORDER>
1
19
26
21
41
70
42
77
102
56
88
91
28
14
33
79
24
17
68
92
20
97
55
86
44
16
98
36
58
11
15
100
81
72
67
22
103
94
48
96
47
69
52
30
64
63
59
35
85
23
40
54
87
60
34
25
27
84
90
74
57
4
6
82
45
101
78
46
39
80
10
49
83
38
66
32
43
12
37
29
50
99
61
13
5
2
65
71
53
76
73
51
62
31
7
18
8
89
93
75
9
95
3

> <PUBCHEM_MMFF94_PARTIAL_CHARGES>
23
1 -0.57
15 0.57
16 0.69
17 0.36
18 0.59
19 -0.24
2 -0.57
20 -0.18
21 -0.09
22 -0.33
23 0.18
24 0.18
25 0.81
26 0.28
3 -0.57
37 0.37
4 -0.43
40 0.27
5 -0.57
6 -0.73
7 -0.42
8 0.03
9 0.36

> <PUBCHEM_EFFECTIVE_ROTOR_COUNT>
6.4

> <PUBCHEM_PHARMACOPHORE_FEATURES>
10
1 1 acceptor
1 2 acceptor
1 3 acceptor
1 5 acceptor
1 6 donor
1 8 cation
1 8 donor
5 6 7 9 15 16 rings
5 8 19 20 21 22 rings
6 9 10 11 12 13 14 rings

> <PUBCHEM_HEAVY_ATOM_COUNT>
26

> <PUBCHEM_ATOM_DEF_STEREO_COUNT>
0

> <PUBCHEM_ATOM_UDEF_STEREO_COUNT>
0

> <PUBCHEM_BOND_DEF_STEREO_COUNT>
0

> <PUBCHEM_BOND_UDEF_STEREO_COUNT>
0

> <PUBCHEM_ISOTOPIC_ATOM_COUNT>
0

> <PUBCHEM_COMPONENT_COUNT>
1

> <PUBCHEM_CACTVS_TAUTO_COUNT>
36

> <PUBCHEM_CONFORMER_ID>
0109720600000001

> <PUBCHEM_MMFF94_ENERGY>
41.5835

> <PUBCHEM_FEATURE_SELFOVERLAP>
50.749

> <PUBCHEM_SHAPE_FINGERPRINT>
10 15 18130500929940106113
10162869 55 16056596513960474643
10366900 7 16950280706639364387
10411042 1 18049161065562449359
10554248 39 18126869281166106447
10595046 47 18411698764646933494
10906281 52 18261663866460670545
11315181 36 17095240315840605665
11646440 116 15769773559150960620
11719270 70 17603866741340102686
11796584 16 18259983786528746486
12107183 9 17693946593371078834
12236239 1 18060139825717912038
12596602 18 18059575745834547086
12616971 3 17560817553396666163
12788726 201 18340771554377790553
13533116 47 17274830211230614906
13631057 29 17130702756934585283
13685833 64 7853576811851473580
13782708 43 17240768311380633558
14528608 73 18201721717607377486
14933364 13 18410289203192451388
15183329 4 18334288786791527400
1577012 14 18273216379029982926
1813 80 13912591750482992880
18608769 82 18336821984558160755
18681886 176 18337677403865228136
20511986 3 17846230963794242173
20681677 155 18343863303470090963
21033648 29 17385740088039270235
21150785 3 18333735693904069423
21267235 1 18337108965782690775
21792961 116 17313093186282011438
221357 26 16153709846900205816
22224240 67 15626222386607423160
23402539 116 18410294688219233478
23536379 177 18409728461379883734
23557571 272 18114178687281601469
23559900 14 18259708882539989281
23576562 1 16588600681730794988
24771293 8 17631451164725163668
29717793 49 18259981596210619198
300161 21 17704079486300586443
3004659 81 18409728483018159570
335352 9 18408047313034356861
34797466 226 17894902993249578756
4073 2 18201712917193527770
4325135 7 18410855460376419828
4340502 62 16272206396889974312
5385378 56 16702306788802391474
542803 24 18131917074281421931
6328613 192 18410291411196551337
6823239 73 18041289776717123688
7495541 125 17676769778130469394

> <PUBCHEM_SHAPE_MULTIPOLES>
490.78
18.51
2
1.2
2.62
0.12
-0.54
5.93
3.32
2.44
0.12
-1.19
-0.25
-0.88

> <PUBCHEM_SHAPE_SELFOVERLAP>
1048.952

> <PUBCHEM_SHAPE_VOLUME>
273.5

> <PUBCHEM_COORDINATE_TYPE>
2
5
10

$$$$

