13478
  -OEChem-06261214372D

 36 36  0     0  0  0  0  0  0999 V2000
    3.7320   -1.5000    0.0000 O   0  0  0  0  0  0  0  0  0  0  0  0
    8.9282   -1.5000    0.0000 O   0  0  0  0  0  0  0  0  0  0  0  0
    7.1962    1.5000    0.0000 O   0  0  0  0  0  0  0  0  0  0  0  0
    4.5981   -3.0000    0.0000 O   0  0  0  0  0  0  0  0  0  0  0  0
    8.0622   -3.0000    0.0000 O   0  0  0  0  0  0  0  0  0  0  0  0
    5.4641    1.5000    0.0000 O   0  0  0  0  0  0  0  0  0  0  0  0
    6.3301   -2.0000    0.0000 N   0  0  0  0  0  0  0  0  0  0  0  0
    5.4641   -0.5000    0.0000 N   0  0  0  0  0  0  0  0  0  0  0  0
    7.1962   -0.5000    0.0000 N   0  0  0  0  0  0  0  0  0  0  0  0
    5.4641   -1.5000    0.0000 C   0  0  0  0  0  0  0  0  0  0  0  0
    7.1962   -1.5000    0.0000 C   0  0  0  0  0  0  0  0  0  0  0  0
    6.3301    0.0000    0.0000 C   0  0  0  0  0  0  0  0  0  0  0  0
    7.1962    2.5000    0.0000 C   0  0  0  0  0  0  0  0  0  0  0  0
    9.7942   -2.0000    0.0000 C   0  0  0  0  0  0  0  0  0  0  0  0
    2.8660   -2.0000    0.0000 C   0  0  0  0  0  0  0  0  0  0  0  0
    4.5981   -2.0000    0.0000 C   0  0  0  0  0  0  0  0  0  0  0  0
    8.0622   -2.0000    0.0000 C   0  0  0  0  0  0  0  0  0  0  0  0
    6.3301    1.0000    0.0000 C   0  0  0  0  0  0  0  0  0  0  0  0
    2.0000   -1.5000    0.0000 C   0  0  0  0  0  0  0  0  0  0  0  0
   10.6603   -1.5000    0.0000 C   0  0  0  0  0  0  0  0  0  0  0  0
    8.0622    3.0000    0.0000 C   0  0  0  0  0  0  0  0  0  0  0  0
    2.4675   -2.4750    0.0000 H   0  0  0  0  0  0  0  0  0  0  0  0
    3.2646   -2.4750    0.0000 H   0  0  0  0  0  0  0  0  0  0  0  0
    9.3957   -2.4750    0.0000 H   0  0  0  0  0  0  0  0  0  0  0  0
   10.1928   -2.4750    0.0000 H   0  0  0  0  0  0  0  0  0  0  0  0
    6.9841    3.0826    0.0000 H   0  0  0  0  0  0  0  0  0  0  0  0
    6.5856    2.3923    0.0000 H   0  0  0  0  0  0  0  0  0  0  0  0
    8.3722    2.4631    0.0000 H   0  0  0  0  0  0  0  0  0  0  0  0
    8.5991    3.3100    0.0000 H   0  0  0  0  0  0  0  0  0  0  0  0
    7.7522    3.5369    0.0000 H   0  0  0  0  0  0  0  0  0  0  0  0
   10.9703   -2.0369    0.0000 H   0  0  0  0  0  0  0  0  0  0  0  0
   11.1972   -1.1900    0.0000 H   0  0  0  0  0  0  0  0  0  0  0  0
   10.3503   -0.9631    0.0000 H   0  0  0  0  0  0  0  0  0  0  0  0
    2.3100   -0.9631    0.0000 H   0  0  0  0  0  0  0  0  0  0  0  0
    1.4631   -1.1900    0.0000 H   0  0  0  0  0  0  0  0  0  0  0  0
    1.6900   -2.0369    0.0000 H   0  0  0  0  0  0  0  0  0  0  0  0
  1 15  1  0  0  0  0
  1 16  1  0  0  0  0
  2 14  1  0  0  0  0
  2 17  1  0  0  0  0
  3 13  1  0  0  0  0
  3 18  1  0  0  0  0
  4 16  2  0  0  0  0
  5 17  2  0  0  0  0
  6 18  2  0  0  0  0
  7 10  1  0  0  0  0
  7 11  2  0  0  0  0
  8 10  2  0  0  0  0
  8 12  1  0  0  0  0
  9 11  1  0  0  0  0
  9 12  2  0  0  0  0
 10 16  1  0  0  0  0
 11 17  1  0  0  0  0
 12 18  1  0  0  0  0
 13 21  1  0  0  0  0
 13 26  1  0  0  0  0
 13 27  1  0  0  0  0
 14 20  1  0  0  0  0
 14 24  1  0  0  0  0
 14 25  1  0  0  0  0
 15 19  1  0  0  0  0
 15 22  1  0  0  0  0
 15 23  1  0  0  0  0
 19 34  1  0  0  0  0
 19 35  1  0  0  0  0
 19 36  1  0  0  0  0
 20 31  1  0  0  0  0
 20 32  1  0  0  0  0
 20 33  1  0  0  0  0
 21 28  1  0  0  0  0
 21 29  1  0  0  0  0
 21 30  1  0  0  0  0
M  END
> <PUBCHEM_COMPOUND_CID>
13478

> <PUBCHEM_COMPOUND_CANONICALIZED>
1

> <PUBCHEM_CACTVS_COMPLEXITY>
320

> <PUBCHEM_CACTVS_HBOND_ACCEPTOR>
9

> <PUBCHEM_CACTVS_HBOND_DONOR>
0

> <PUBCHEM_CACTVS_ROTATABLE_BOND>
9

> <PUBCHEM_CACTVS_SUBSKEYS>
AAADccBzOAAAAAAAAAAAAAAAAAAAAAAAAAAsAAAAAAAAAAABgAAAHgAAAAAAAAChgwIDGAYIFAAoAAKwLAQAgAkCAKABAACAAACCCAAACCADAAAIAAKQAAAAAAAAAAAAAAAAAAAAAAAAAAAAAAAAAAAAAA==

> <PUBCHEM_IUPAC_OPENEYE_NAME>
triethyl 1,3,5-triazine-2,4,6-tricarboxylate

> <PUBCHEM_IUPAC_CAS_NAME>
1,3,5-triazine-2,4,6-tricarboxylic acid triethyl ester

> <PUBCHEM_IUPAC_NAME>
triethyl 1,3,5-triazine-2,4,6-tricarboxylate

> <PUBCHEM_IUPAC_SYSTEMATIC_NAME>
triethyl 1,3,5-triazine-2,4,6-tricarboxylate

> <PUBCHEM_IUPAC_TRADITIONAL_NAME>
s-triazine-2,4,6-tricarboxylic acid triethyl ester

> <PUBCHEM_IUPAC_INCHI>
InChI=1S/C12H15N3O6/c1-4-19-10(16)7-13-8(11(17)20-5-2)15-9(14-7)12(18)21-6-3/h4-6H2,1-3H3

> <PUBCHEM_IUPAC_INCHIKEY>
LKNPNZKIOSOWES-UHFFFAOYSA-N

> <PUBCHEM_XLOGP3_AA>
1.6

> <PUBCHEM_EXACT_MASS>
297.096085

> <PUBCHEM_MOLECULAR_FORMULA>
C12H15N3O6

> <PUBCHEM_MOLECULAR_WEIGHT>
297.264

> <PUBCHEM_OPENEYE_CAN_SMILES>
CCOC(=O)C1=NC(=NC(=N1)C(=O)OCC)C(=O)OCC

> <PUBCHEM_OPENEYE_ISO_SMILES>
CCOC(=O)C1=NC(=NC(=N1)C(=O)OCC)C(=O)OCC

> <PUBCHEM_CACTVS_TPSA>
118

> <PUBCHEM_MONOISOTOPIC_WEIGHT>
297.096085

> <PUBCHEM_TOTAL_CHARGE>
0

> <PUBCHEM_HEAVY_ATOM_COUNT>
21

> <PUBCHEM_ATOM_DEF_STEREO_COUNT>
0

> <PUBCHEM_ATOM_UDEF_STEREO_COUNT>
0

> <PUBCHEM_BOND_DEF_STEREO_COUNT>
0

> <PUBCHEM_BOND_UDEF_STEREO_COUNT>
0

> <PUBCHEM_ISOTOPIC_ATOM_COUNT>
0

> <PUBCHEM_COMPONENT_COUNT>
1

> <PUBCHEM_CACTVS_TAUTO_COUNT>
1

> <PUBCHEM_COORDINATE_TYPE>
1
5
255

> <PUBCHEM_BONDANNOTATIONS>
7  10  8
7  11  8
8  10  8
8  12  8
9  11  8
9  12  8

$$$$

