9874
  -OEChem-06261204093D

 29 28  0     0  0  0  0  0  0999 V2000
    0.8454   -1.8331    0.6825 F   0  0  0  0  0  0  0  0  0  0  0  0
   -0.8453   -1.8334   -0.6816 F   0  0  0  0  0  0  0  0  0  0  0  0
    1.4096   -1.1070   -1.8596 F   0  0  0  0  0  0  0  0  0  0  0  0
   -0.0394    0.5068   -1.7971 F   0  0  0  0  0  0  0  0  0  0  0  0
   -1.4095   -1.1059    1.8603 F   0  0  0  0  0  0  0  0  0  0  0  0
    0.0395    0.5079    1.7965 F   0  0  0  0  0  0  0  0  0  0  0  0
    3.0122    0.0089   -0.2206 O   0  0  0  0  0  0  0  0  0  0  0  0
   -3.0122    0.0090    0.2206 O   0  0  0  0  0  0  0  0  0  0  0  0
    1.6161    1.8387   -0.0502 O   0  0  0  0  0  0  0  0  0  0  0  0
   -1.6161    1.8386    0.0493 O   0  0  0  0  0  0  0  0  0  0  0  0
    0.0001   -1.0108    0.0002 C   0  0  0  0  0  0  0  0  0  0  0  0
    0.8086   -0.2180   -1.0179 C   0  0  0  0  0  0  0  0  0  0  0  0
   -0.8085   -0.2175    1.0179 C   0  0  0  0  0  0  0  0  0  0  0  0
    1.8370    0.6807   -0.3804 C   0  0  0  0  0  0  0  0  0  0  0  0
   -1.8370    0.6808    0.3799 C   0  0  0  0  0  0  0  0  0  0  0  0
    4.0684    0.7536    0.3937 C   0  0  0  0  0  0  0  0  0  0  0  0
   -4.0686    0.7534   -0.3940 C   0  0  0  0  0  0  0  0  0  0  0  0
    5.2958   -0.1262    0.4983 C   0  0  0  0  0  0  0  0  0  0  0  0
   -5.2960   -0.1265   -0.4979 C   0  0  0  0  0  0  0  0  0  0  0  0
    4.2959    1.6355   -0.2154 H   0  0  0  0  0  0  0  0  0  0  0  0
    3.7556    1.0732    1.3941 H   0  0  0  0  0  0  0  0  0  0  0  0
   -4.2959    1.6356    0.2148 H   0  0  0  0  0  0  0  0  0  0  0  0
   -3.7559    1.0723   -1.3945 H   0  0  0  0  0  0  0  0  0  0  0  0
    6.1250    0.4129    0.9650 H   0  0  0  0  0  0  0  0  0  0  0  0
    5.0786   -1.0217    1.0898 H   0  0  0  0  0  0  0  0  0  0  0  0
    5.6100   -0.4687   -0.4932 H   0  0  0  0  0  0  0  0  0  0  0  0
   -6.1252    0.4123   -0.9649 H   0  0  0  0  0  0  0  0  0  0  0  0
   -5.0788   -1.0224   -1.0890 H   0  0  0  0  0  0  0  0  0  0  0  0
   -5.6102   -0.4685    0.4937 H   0  0  0  0  0  0  0  0  0  0  0  0
  1 11  1  0  0  0  0
  2 11  1  0  0  0  0
  3 12  1  0  0  0  0
  4 12  1  0  0  0  0
  5 13  1  0  0  0  0
  6 13  1  0  0  0  0
  7 14  1  0  0  0  0
  7 16  1  0  0  0  0
  8 15  1  0  0  0  0
  8 17  1  0  0  0  0
  9 14  2  0  0  0  0
 10 15  2  0  0  0  0
 11 12  1  0  0  0  0
 11 13  1  0  0  0  0
 12 14  1  0  0  0  0
 13 15  1  0  0  0  0
 16 18  1  0  0  0  0
 16 20  1  0  0  0  0
 16 21  1  0  0  0  0
 17 19  1  0  0  0  0
 17 22  1  0  0  0  0
 17 23  1  0  0  0  0
 18 24  1  0  0  0  0
 18 25  1  0  0  0  0
 18 26  1  0  0  0  0
 19 27  1  0  0  0  0
 19 28  1  0  0  0  0
 19 29  1  0  0  0  0
M  END
> <PUBCHEM_COMPOUND_CID>
9874

> <PUBCHEM_CONFORMER_RMSD>
0.8

> <PUBCHEM_CONFORMER_DIVERSEORDER>
1
8
18
4
17
41
70
73
23
69
19
3
10
33
51
46
68
52
34
64
27
14
37
62
29
57
2
74
55
40
35
16
22
45
39
13
30
54
32
28
75
67
42
76
47
56
38
61
50
77
5
53
63
12
20
49
60
58
59
25
48
36
21
26
72
9
65
66
15
24
31
71
7
11
44
6
43

> <PUBCHEM_MMFF94_PARTIAL_CHARGES>
17
1 -0.34
10 -0.57
11 0.68
12 0.74
13 0.74
14 0.66
15 0.66
16 0.28
17 0.28
2 -0.34
3 -0.34
4 -0.34
5 -0.34
6 -0.34
7 -0.43
8 -0.43
9 -0.57

> <PUBCHEM_EFFECTIVE_ROTOR_COUNT>
8

> <PUBCHEM_PHARMACOPHORE_FEATURES>
2
1 10 acceptor
1 9 acceptor

> <PUBCHEM_HEAVY_ATOM_COUNT>
19

> <PUBCHEM_ATOM_DEF_STEREO_COUNT>
0

> <PUBCHEM_ATOM_UDEF_STEREO_COUNT>
0

> <PUBCHEM_BOND_DEF_STEREO_COUNT>
0

> <PUBCHEM_BOND_UDEF_STEREO_COUNT>
0

> <PUBCHEM_ISOTOPIC_ATOM_COUNT>
0

> <PUBCHEM_COMPONENT_COUNT>
1

> <PUBCHEM_CACTVS_TAUTO_COUNT>
1

> <PUBCHEM_CONFORMER_ID>
0000269200000001

> <PUBCHEM_MMFF94_ENERGY>
11.6856

> <PUBCHEM_FEATURE_SELFOVERLAP>
10.149

> <PUBCHEM_SHAPE_FINGERPRINT>
12011746 2 18131633408924144388
12119455 92 18343309170947014382
124424 183 18272928315304609816
12592029 89 18040719203460547310
13464513 79 4895258335681420421
13571099 52 18116703196075342784
15207287 21 18410569591399939809
15852999 172 17917700319053456715
16945 1 18338495504687595238
17862501 102 18342463646568590497
18511873 20 15697994119852955141
187816 3 16732984210762073936
192875 21 18410852148772433640
200 152 16805321106365044093
20344682 1 17894632552170386869
23402539 116 18408612452487285997
23557571 272 18187365471646158969
23559900 14 18059571344163313016
265663 24 18410578387498210790
351380 180 18410015433477078352
69090 78 18186241718842708006

> <PUBCHEM_SHAPE_MULTIPOLES>
323.89
8.02
1.46
1.35
0
0.09
0
-1.27
0
0
0
0
0.28
0.18

> <PUBCHEM_SHAPE_SELFOVERLAP>
657.619

> <PUBCHEM_SHAPE_VOLUME>
186.9

> <PUBCHEM_COORDINATE_TYPE>
2
5
10

$$$$

