11819
  -OEChem-06261206093D

 19 20  0     0  0  0  0  0  0999 V2000
   -3.6975   -0.1907   -0.0002 Cl  0  0  0  0  0  0  0  0  0  0  0  0
   -1.4248   -2.1011   -0.0006 O   0  0  0  0  0  0  0  0  0  0  0  0
    0.3235   -0.4528    0.0002 C   0  0  0  0  0  0  0  0  0  0  0  0
    0.7009    0.9112   -0.0001 C   0  0  0  0  0  0  0  0  0  0  0  0
   -1.0402   -0.7881    0.0004 C   0  0  0  0  0  0  0  0  0  0  0  0
   -0.2967    1.8998   -0.0001 C   0  0  0  0  0  0  0  0  0  0  0  0
    1.3210   -1.4414    0.0003 C   0  0  0  0  0  0  0  0  0  0  0  0
    2.0647    1.2464   -0.0002 C   0  0  0  0  0  0  0  0  0  0  0  0
   -2.0179    0.2071    0.0003 C   0  0  0  0  0  0  0  0  0  0  0  0
   -1.6468    1.5485    0.0000 C   0  0  0  0  0  0  0  0  0  0  0  0
    2.6713   -1.0902    0.0001 C   0  0  0  0  0  0  0  0  0  0  0  0
    3.0424    0.2511   -0.0002 C   0  0  0  0  0  0  0  0  0  0  0  0
   -0.0295    2.9546   -0.0003 H   0  0  0  0  0  0  0  0  0  0  0  0
    1.0903   -2.5028   -0.0169 H   0  0  0  0  0  0  0  0  0  0  0  0
    2.3778    2.2885   -0.0006 H   0  0  0  0  0  0  0  0  0  0  0  0
   -2.3968    2.3355   -0.0001 H   0  0  0  0  0  0  0  0  0  0  0  0
    3.4335   -1.8640   -0.0040 H   0  0  0  0  0  0  0  0  0  0  0  0
    4.0937    0.5239   -0.0014 H   0  0  0  0  0  0  0  0  0  0  0  0
   -0.7901   -2.6324    0.5058 H   0  0  0  0  0  0  0  0  0  0  0  0
  1  9  1  0  0  0  0
  2  5  1  0  0  0  0
  2 19  1  0  0  0  0
  3  4  1  0  0  0  0
  3  5  1  0  0  0  0
  3  7  2  0  0  0  0
  4  6  1  0  0  0  0
  4  8  2  0  0  0  0
  5  9  2  0  0  0  0
  6 10  2  0  0  0  0
  6 13  1  0  0  0  0
  7 11  1  0  0  0  0
  7 14  1  0  0  0  0
  8 12  1  0  0  0  0
  8 15  1  0  0  0  0
  9 10  1  0  0  0  0
 10 16  1  0  0  0  0
 11 12  2  0  0  0  0
 11 17  1  0  0  0  0
 12 18  1  0  0  0  0
M  END
> <PUBCHEM_COMPOUND_CID>
11819

> <PUBCHEM_CONFORMER_RMSD>
0.4

> <PUBCHEM_CONFORMER_DIVERSEORDER>
1

> <PUBCHEM_MMFF94_PARTIAL_CHARGES>
17
1 -0.18
10 -0.15
11 -0.15
12 -0.15
13 0.15
14 0.15
15 0.15
16 0.15
17 0.15
18 0.15
19 0.45
2 -0.53
5 0.08
6 -0.15
7 -0.15
8 -0.15
9 0.18

> <PUBCHEM_EFFECTIVE_ROTOR_COUNT>
0

> <PUBCHEM_PHARMACOPHORE_FEATURES>
3
1 2 donor
6 3 4 5 6 9 10 rings
6 3 4 7 8 11 12 rings

> <PUBCHEM_HEAVY_ATOM_COUNT>
12

> <PUBCHEM_ATOM_DEF_STEREO_COUNT>
0

> <PUBCHEM_ATOM_UDEF_STEREO_COUNT>
0

> <PUBCHEM_BOND_DEF_STEREO_COUNT>
0

> <PUBCHEM_BOND_UDEF_STEREO_COUNT>
0

> <PUBCHEM_ISOTOPIC_ATOM_COUNT>
0

> <PUBCHEM_COMPONENT_COUNT>
1

> <PUBCHEM_CACTVS_TAUTO_COUNT>
3

> <PUBCHEM_CONFORMER_ID>
00002E2B00000001

> <PUBCHEM_MMFF94_ENERGY>
36.0901

> <PUBCHEM_FEATURE_SELFOVERLAP>
15.249

> <PUBCHEM_SHAPE_FINGERPRINT>
10967382 1 18410855438684986822
11206711 2 18268709583319405053
11471102 20 18411142437348446885
12032990 46 18411693296884605227
12423570 1 11589961272781436497
12524768 44 18408599279490247166
13380535 76 18410014320922267062
14325111 11 18410574032523010241
16945 1 18410575084795103620
17844478 74 18060412530376549109
193761 8 17689998938294206893
20201158 50 18411700988870319531
20510252 161 18187928438278289912
20588541 1 18410009918554031627
20871998 184 18187644691374460919
21040471 1 18338797948006011232
21501502 16 18338231699385889808
2334 1 17906171754614735266
23402539 116 18334871531758651375
23402655 69 18335993034035857333
23463225 33 18412544331494943212
23552423 10 18272087137237735380
23559900 14 18190175888503414142
2748010 2 17977947886582128892
5084963 1 18115311205653523313
528886 8 18409733919792531322
53812653 166 18189058599014073704
7364860 26 18333730191914124524
8809292 202 18272083872936412330

> <PUBCHEM_SHAPE_MULTIPOLES>
242.95
4.62
1.95
0.61
1.08
0
0
0.53
0
0.07
0
0
-0.02
0

> <PUBCHEM_SHAPE_SELFOVERLAP>
526.395

> <PUBCHEM_SHAPE_VOLUME>
134.2

> <PUBCHEM_COORDINATE_TYPE>
2
5
10

$$$$

