583258
  -OEChem-06241222453D

 24 25  0     0  0  0  0  0  0999 V2000
    2.4443   -0.4536    0.1686 S   0  0  0  0  0  0  0  0  0  0  0  0
    2.2654   -0.3908    1.6061 O   0  0  0  0  0  0  0  0  0  0  0  0
    3.6228   -1.0704   -0.4083 O   0  0  0  0  0  0  0  0  0  0  0  0
    2.2479    1.1010   -0.5110 N   0  0  0  0  0  0  0  0  0  0  0  0
    1.0194   -1.2285   -0.5473 C   0  0  0  0  0  0  0  0  0  0  0  0
   -0.2239   -0.4320   -0.2546 C   0  0  0  0  0  0  0  0  0  0  0  0
   -0.2420    0.9700   -0.1151 C   0  0  0  0  0  0  0  0  0  0  0  0
    1.0047    1.8199   -0.1543 C   0  0  0  0  0  0  0  0  0  0  0  0
   -1.4414   -1.1345   -0.1951 C   0  0  0  0  0  0  0  0  0  0  0  0
   -1.4664    1.6242    0.1113 C   0  0  0  0  0  0  0  0  0  0  0  0
   -2.6481   -0.4713    0.0260 C   0  0  0  0  0  0  0  0  0  0  0  0
   -2.6605    0.9092    0.1813 C   0  0  0  0  0  0  0  0  0  0  0  0
   -3.9222   -1.2432    0.0923 C   0  0  0  0  0  0  0  0  0  0  0  0
    0.9649   -2.2324   -0.1132 H   0  0  0  0  0  0  0  0  0  0  0  0
    1.1770   -1.3096   -1.6271 H   0  0  0  0  0  0  0  0  0  0  0  0
    0.8673    2.6208   -0.8903 H   0  0  0  0  0  0  0  0  0  0  0  0
    1.1549    2.2823    0.8283 H   0  0  0  0  0  0  0  0  0  0  0  0
    2.5082    1.1971   -1.5016 H   0  0  0  0  0  0  0  0  0  0  0  0
   -1.4425   -2.2152   -0.3271 H   0  0  0  0  0  0  0  0  0  0  0  0
   -1.4917    2.7047    0.2345 H   0  0  0  0  0  0  0  0  0  0  0  0
   -3.5912    1.4427    0.3536 H   0  0  0  0  0  0  0  0  0  0  0  0
   -4.3261   -1.3889   -0.9145 H   0  0  0  0  0  0  0  0  0  0  0  0
   -3.7636   -2.2237    0.5542 H   0  0  0  0  0  0  0  0  0  0  0  0
   -4.6723   -0.7222    0.6970 H   0  0  0  0  0  0  0  0  0  0  0  0
  1  2  2  0  0  0  0
  1  3  2  0  0  0  0
  1  4  1  0  0  0  0
  1  5  1  0  0  0  0
  4  8  1  0  0  0  0
  4 18  1  0  0  0  0
  5  6  1  0  0  0  0
  5 14  1  0  0  0  0
  5 15  1  0  0  0  0
  6  7  2  0  0  0  0
  6  9  1  0  0  0  0
  7  8  1  0  0  0  0
  7 10  1  0  0  0  0
  8 16  1  0  0  0  0
  8 17  1  0  0  0  0
  9 11  2  0  0  0  0
  9 19  1  0  0  0  0
 10 12  2  0  0  0  0
 10 20  1  0  0  0  0
 11 12  1  0  0  0  0
 11 13  1  0  0  0  0
 12 21  1  0  0  0  0
 13 22  1  0  0  0  0
 13 23  1  0  0  0  0
 13 24  1  0  0  0  0
M  END
> <PUBCHEM_COMPOUND_CID>
583258

> <PUBCHEM_CONFORMER_RMSD>
0.4

> <PUBCHEM_CONFORMER_DIVERSEORDER>
1
2

> <PUBCHEM_MMFF94_PARTIAL_CHARGES>
17
1 1.33
10 -0.15
11 -0.14
12 -0.15
13 0.14
18 0.42
19 0.15
2 -0.65
20 0.15
21 0.15
3 -0.65
4 -0.91
5 0.25
6 -0.14
7 -0.14
8 0.5
9 -0.15

> <PUBCHEM_EFFECTIVE_ROTOR_COUNT>
0.6

> <PUBCHEM_PHARMACOPHORE_FEATURES>
5
1 2 acceptor
1 3 acceptor
1 4 donor
6 1 4 5 6 7 8 rings
6 6 7 9 10 11 12 rings

> <PUBCHEM_HEAVY_ATOM_COUNT>
13

> <PUBCHEM_ATOM_DEF_STEREO_COUNT>
0

> <PUBCHEM_ATOM_UDEF_STEREO_COUNT>
0

> <PUBCHEM_BOND_DEF_STEREO_COUNT>
0

> <PUBCHEM_BOND_UDEF_STEREO_COUNT>
0

> <PUBCHEM_ISOTOPIC_ATOM_COUNT>
0

> <PUBCHEM_COMPONENT_COUNT>
1

> <PUBCHEM_CACTVS_TAUTO_COUNT>
1

> <PUBCHEM_CONFORMER_ID>
0008E65A00000001

> <PUBCHEM_MMFF94_ENERGY>
26.4151

> <PUBCHEM_FEATURE_SELFOVERLAP>
25.409

> <PUBCHEM_SHAPE_FINGERPRINT>
10857977 72 18335709359576733987
11132069 177 18408890667235516313
11543360 7 15554159268983394727
11769659 78 18341617001288033479
12032990 46 18408598179936518838
12382932 28 18262522618526125889
12696612 119 18410569595705586692
12932764 1 17489308624197990133
14144814 61 18410854352174318505
14325111 11 18409727344234784173
15375462 189 17916864737233880682
15536298 74 18334573508605466236
16945 1 18339644563311422485
17804303 29 18187080710876671694
17990270 104 18410852157388047004
18186145 218 17775010068151056871
19422 9 18343012324572449518
200 152 18040445382342034935
20201158 50 18410292540498240863
20559304 39 18409728422171140732
20645477 70 18269278967730109831
20653091 64 18202283580670504296
20715346 28 18041573515078061136
20871998 184 18186803616581896055
21501502 16 18411129230266223149
21501925 9 18410582751422386435
23463225 33 18411416206784550389
23552423 10 18200872859886153685
23559900 14 17829325032452728686
2748010 2 18118961644698635263
369184 2 17632580474102243633
5084963 1 18186516622382351114
528862 383 18198910205744705604
53812654 25 18041567914699241615
7364860 26 18262518066230342824
8809292 202 18272643511665279163

> <PUBCHEM_SHAPE_MULTIPOLES>
254.66
5.42
1.78
0.82
0.85
0.51
-0.22
-2
-0.35
0.15
0.14
-0.42
-0.08
-0.1

> <PUBCHEM_SHAPE_SELFOVERLAP>
527.178

> <PUBCHEM_SHAPE_VOLUME>
146

> <PUBCHEM_COORDINATE_TYPE>
2
5
10

$$$$

