12558
  -OEChem-06261207052D

 21 22  0     0  0  0  0  0  0999 V2000
    3.5388    0.5000    0.0000 N   0  0  0  0  0  0  0  0  0  0  0  0
    3.5388   -0.5000    0.0000 C   0  0  0  0  0  0  0  0  0  0  0  0
    4.4851   -0.8047    0.0000 C   0  0  0  0  0  0  0  0  0  0  0  0
    2.5878   -0.8090    0.0000 C   0  0  0  0  0  0  0  0  0  0  0  0
    2.5878    0.8090    0.0000 C   0  0  0  0  0  0  0  0  0  0  0  0
    4.4851    0.8047    0.0000 C   0  0  0  0  0  0  0  0  0  0  0  0
    5.0687    0.0000    0.0000 C   0  0  0  0  0  0  0  0  0  0  0  0
    2.0000    0.0000    0.0000 C   0  0  0  0  0  0  0  0  0  0  0  0
    3.5396   -1.1200    0.0000 H   0  0  0  0  0  0  0  0  0  0  0  0
    2.0508   -1.1190    0.0000 H   0  0  0  0  0  0  0  0  0  0  0  0
    2.8400   -1.3754    0.0000 H   0  0  0  0  0  0  0  0  0  0  0  0
    4.2340   -1.3716    0.0000 H   0  0  0  0  0  0  0  0  0  0  0  0
    5.0224   -1.1140    0.0000 H   0  0  0  0  0  0  0  0  0  0  0  0
    5.0224    1.1140    0.0000 H   0  0  0  0  0  0  0  0  0  0  0  0
    4.2340    1.3716    0.0000 H   0  0  0  0  0  0  0  0  0  0  0  0
    2.8400    1.3754    0.0000 H   0  0  0  0  0  0  0  0  0  0  0  0
    2.0508    1.1190    0.0000 H   0  0  0  0  0  0  0  0  0  0  0  0
    5.5295   -0.4147    0.0000 H   0  0  0  0  0  0  0  0  0  0  0  0
    5.5295    0.4147    0.0000 H   0  0  0  0  0  0  0  0  0  0  0  0
    1.5392    0.4149    0.0000 H   0  0  0  0  0  0  0  0  0  0  0  0
    1.5392   -0.4149    0.0000 H   0  0  0  0  0  0  0  0  0  0  0  0
  1  2  1  0  0  0  0
  1  5  1  0  0  0  0
  1  6  1  0  0  0  0
  2  3  1  0  0  0  0
  2  4  1  0  0  0  0
  2  9  1  0  0  0  0
  3  7  1  0  0  0  0
  3 12  1  0  0  0  0
  3 13  1  0  0  0  0
  4  8  1  0  0  0  0
  4 10  1  0  0  0  0
  4 11  1  0  0  0  0
  5  8  1  0  0  0  0
  5 16  1  0  0  0  0
  5 17  1  0  0  0  0
  6  7  1  0  0  0  0
  6 14  1  0  0  0  0
  6 15  1  0  0  0  0
  7 18  1  0  0  0  0
  7 19  1  0  0  0  0
  8 20  1  0  0  0  0
  8 21  1  0  0  0  0
M  END
> <PUBCHEM_COMPOUND_CID>
12558

> <PUBCHEM_COMPOUND_CANONICALIZED>
1

> <PUBCHEM_CACTVS_COMPLEXITY>
80.4

> <PUBCHEM_CACTVS_HBOND_ACCEPTOR>
1

> <PUBCHEM_CACTVS_HBOND_DONOR>
0

> <PUBCHEM_CACTVS_ROTATABLE_BOND>
0

> <PUBCHEM_CACTVS_SUBSKEYS>
AAADccBiAAAAAAAAAAAAAAAAAAAAAWLAAAAAAAAAAAAWAAAAAAAAHAAAAAAACCjBAAQAAAMAAAAAAAAAAAAAAAAAAAAAAAAIAAAAAAIAgAAEAAAAAACAAAEQgAAAAAAAAAAAAAAAAAAAAAAAAAAAAAAAAA==

> <PUBCHEM_IUPAC_OPENEYE_NAME>
2,3,5,6,7,8-hexahydro-1H-pyrrolizine

> <PUBCHEM_IUPAC_CAS_NAME>
2,3,5,6,7,8-hexahydro-1H-pyrrolizine

> <PUBCHEM_IUPAC_NAME>
2,3,5,6,7,8-hexahydro-1H-pyrrolizine

> <PUBCHEM_IUPAC_SYSTEMATIC_NAME>
2,3,5,6,7,8-hexahydro-1H-pyrrolizine

> <PUBCHEM_IUPAC_TRADITIONAL_NAME>
pyrrolizidine

> <PUBCHEM_IUPAC_INCHI>
InChI=1S/C7H13N/c1-3-7-4-2-6-8(7)5-1/h7H,1-6H2

> <PUBCHEM_IUPAC_INCHIKEY>
ADRDEXBBJTUCND-UHFFFAOYSA-N

> <PUBCHEM_XLOGP3_AA>
1.3

> <PUBCHEM_EXACT_MASS>
111.104799

> <PUBCHEM_MOLECULAR_FORMULA>
C7H13N

> <PUBCHEM_MOLECULAR_WEIGHT>
111.18482

> <PUBCHEM_OPENEYE_CAN_SMILES>
C1CC2CCCN2C1

> <PUBCHEM_OPENEYE_ISO_SMILES>
C1CC2CCCN2C1

> <PUBCHEM_CACTVS_TPSA>
3.2

> <PUBCHEM_MONOISOTOPIC_WEIGHT>
111.104799

> <PUBCHEM_TOTAL_CHARGE>
0

> <PUBCHEM_HEAVY_ATOM_COUNT>
8

> <PUBCHEM_ATOM_DEF_STEREO_COUNT>
0

> <PUBCHEM_ATOM_UDEF_STEREO_COUNT>
0

> <PUBCHEM_BOND_DEF_STEREO_COUNT>
0

> <PUBCHEM_BOND_UDEF_STEREO_COUNT>
0

> <PUBCHEM_ISOTOPIC_ATOM_COUNT>
0

> <PUBCHEM_COMPONENT_COUNT>
1

> <PUBCHEM_CACTVS_TAUTO_COUNT>
1

> <PUBCHEM_COORDINATE_TYPE>
1
5
255

$$$$

