13650
  -OEChem-06241222393D

 18 19  0     0  0  0  0  0  0999 V2000
    0.5915    1.3950    0.0006 O   0  0  0  0  0  0  0  0  0  0  0  0
    3.0608   -1.3363    0.0000 O   0  0  0  0  0  0  0  0  0  0  0  0
    2.8775    1.4017    0.0000 O   0  0  0  0  0  0  0  0  0  0  0  0
   -0.5991   -0.7244    0.0000 C   0  0  0  0  0  0  0  0  0  0  0  0
   -0.6141    0.6666   -0.0002 C   0  0  0  0  0  0  0  0  0  0  0  0
    0.6814   -1.4116   -0.0001 C   0  0  0  0  0  0  0  0  0  0  0  0
   -1.8148   -1.4123    0.0001 C   0  0  0  0  0  0  0  0  0  0  0  0
   -1.8068    1.3873   -0.0002 C   0  0  0  0  0  0  0  0  0  0  0  0
    1.8268   -0.7186    0.0000 C   0  0  0  0  0  0  0  0  0  0  0  0
   -3.0192   -0.7028    0.0001 C   0  0  0  0  0  0  0  0  0  0  0  0
   -3.0149    0.6937   -0.0001 C   0  0  0  0  0  0  0  0  0  0  0  0
    1.8309    0.7618   -0.0002 C   0  0  0  0  0  0  0  0  0  0  0  0
    0.6885   -2.4965    0.0000 H   0  0  0  0  0  0  0  0  0  0  0  0
   -1.8402   -2.4992    0.0003 H   0  0  0  0  0  0  0  0  0  0  0  0
   -1.8016    2.4729   -0.0001 H   0  0  0  0  0  0  0  0  0  0  0  0
   -3.9632   -1.2406    0.0003 H   0  0  0  0  0  0  0  0  0  0  0  0
   -3.9543    1.2387   -0.0001 H   0  0  0  0  0  0  0  0  0  0  0  0
    3.7402   -0.6402    0.0000 H   0  0  0  0  0  0  0  0  0  0  0  0
  1  5  1  0  0  0  0
  1 12  1  0  0  0  0
  2  9  1  0  0  0  0
  2 18  1  0  0  0  0
  3 12  2  0  0  0  0
  4  5  1  0  0  0  0
  4  6  1  0  0  0  0
  4  7  2  0  0  0  0
  5  8  2  0  0  0  0
  6  9  2  0  0  0  0
  6 13  1  0  0  0  0
  7 10  1  0  0  0  0
  7 14  1  0  0  0  0
  8 11  1  0  0  0  0
  8 15  1  0  0  0  0
  9 12  1  0  0  0  0
 10 11  2  0  0  0  0
 10 16  1  0  0  0  0
 11 17  1  0  0  0  0
M  END
> <PUBCHEM_COMPOUND_CID>
13650

> <PUBCHEM_CONFORMER_RMSD>
0.4

> <PUBCHEM_CONFORMER_DIVERSEORDER>
1

> <PUBCHEM_MMFF94_PARTIAL_CHARGES>
18
1 -0.23
10 -0.15
11 -0.15
12 0.71
13 0.15
14 0.15
15 0.15
16 0.15
17 0.15
18 0.45
2 -0.53
3 -0.57
4 0.03
5 0.08
6 -0.18
7 -0.15
8 -0.15
9 0.09

> <PUBCHEM_EFFECTIVE_ROTOR_COUNT>
0

> <PUBCHEM_PHARMACOPHORE_FEATURES>
4
1 2 donor
1 3 acceptor
6 1 4 5 6 9 12 rings
6 4 5 7 8 10 11 rings

> <PUBCHEM_HEAVY_ATOM_COUNT>
12

> <PUBCHEM_ATOM_DEF_STEREO_COUNT>
0

> <PUBCHEM_ATOM_UDEF_STEREO_COUNT>
0

> <PUBCHEM_BOND_DEF_STEREO_COUNT>
0

> <PUBCHEM_BOND_UDEF_STEREO_COUNT>
0

> <PUBCHEM_ISOTOPIC_ATOM_COUNT>
0

> <PUBCHEM_COMPONENT_COUNT>
1

> <PUBCHEM_CACTVS_TAUTO_COUNT>
2

> <PUBCHEM_CONFORMER_ID>
0000355200000001

> <PUBCHEM_MMFF94_ENERGY>
36.0148

> <PUBCHEM_FEATURE_SELFOVERLAP>
20.325

> <PUBCHEM_SHAPE_FINGERPRINT>
10608611 8 18411422816797598349
11471102 20 18410860962566843549
12524768 44 18410006680365130823
12897270 3 18410573968103457343
12932764 1 17489030460651555611
13380535 21 18339066116867914898
13380535 76 18339646633543720418
14325111 11 18410575080468533281
15536298 74 18334013891630757226
15775835 57 18335695014338667889
16945 1 18266459991292859335
17844478 74 18131339809423549185
193761 8 15672666500182087086
19973954 147 18410854369285667849
20201158 50 18336829809133466519
21501502 16 18409729560252980687
2334 1 18410855425768436422
23402655 69 18335715957395769253
23463225 33 18412828010022004794
23552423 10 18272088283777796967
23559900 14 18191022507961432590
2748010 2 18410855455838488903
369184 2 18410575085005976787
5084963 1 18260832630562728043
528886 8 18337958891663524235
53812653 166 18188495653355684680
7364860 26 18333732420906887302

> <PUBCHEM_SHAPE_MULTIPOLES>
229.35
4.65
1.76
0.59
0.34
0.03
0
0.04
0
0.27
0
-0.06
-0.01
0

> <PUBCHEM_SHAPE_SELFOVERLAP>
502.14

> <PUBCHEM_SHAPE_VOLUME>
123.8

> <PUBCHEM_COORDINATE_TYPE>
2
5
10

$$$$

