4344
  -OEChem-06261200032D

 20 19  0     0  0  0  0  0  0999 V2000
    2.5369   -0.6270    0.0000 O   0  0  0  0  0  0  0  0  0  0  0  0
    5.1350   -0.1270    0.0000 N   0  3  0  0  0  0  0  0  0  0  0  0
    6.0010    0.3730    0.0000 N   0  0  0  0  0  0  0  0  0  0  0  0
    4.2690   -0.6270    0.0000 C   0  0  0  0  0  0  0  0  0  0  0  0
    4.6350    0.7390    0.0000 C   0  0  0  0  0  0  0  0  0  0  0  0
    5.6350   -0.9930    0.0000 C   0  0  0  0  0  0  0  0  0  0  0  0
    3.4030   -0.1270    0.0000 C   0  0  0  0  0  0  0  0  0  0  0  0
    3.8705   -1.1019    0.0000 H   0  0  0  0  0  0  0  0  0  0  0  0
    4.6675   -1.1019    0.0000 H   0  0  0  0  0  0  0  0  0  0  0  0
    5.1720    1.0490    0.0000 H   0  0  0  0  0  0  0  0  0  0  0  0
    4.3250    1.2760    0.0000 H   0  0  0  0  0  0  0  0  0  0  0  0
    4.0981    0.4290    0.0000 H   0  0  0  0  0  0  0  0  0  0  0  0
    5.0981   -1.3030    0.0000 H   0  0  0  0  0  0  0  0  0  0  0  0
    5.9450   -1.5300    0.0000 H   0  0  0  0  0  0  0  0  0  0  0  0
    6.1720   -0.6830    0.0000 H   0  0  0  0  0  0  0  0  0  0  0  0
    3.8015    0.3480    0.0000 H   0  0  0  0  0  0  0  0  0  0  0  0
    3.0044    0.3480    0.0000 H   0  0  0  0  0  0  0  0  0  0  0  0
    6.5380    0.0630    0.0000 H   0  0  0  0  0  0  0  0  0  0  0  0
    6.0010    0.9930    0.0000 H   0  0  0  0  0  0  0  0  0  0  0  0
    2.0000   -0.3170    0.0000 H   0  0  0  0  0  0  0  0  0  0  0  0
  1  7  1  0  0  0  0
  1 20  1  0  0  0  0
  2  3  1  0  0  0  0
  2  4  1  0  0  0  0
  2  5  1  0  0  0  0
  2  6  1  0  0  0  0
  3 18  1  0  0  0  0
  3 19  1  0  0  0  0
  4  7  1  0  0  0  0
  4  8  1  0  0  0  0
  4  9  1  0  0  0  0
  5 10  1  0  0  0  0
  5 11  1  0  0  0  0
  5 12  1  0  0  0  0
  6 13  1  0  0  0  0
  6 14  1  0  0  0  0
  6 15  1  0  0  0  0
  7 16  1  0  0  0  0
  7 17  1  0  0  0  0
M  CHG  1   2   1
M  END
> <PUBCHEM_COMPOUND_CID>
4344

> <PUBCHEM_COMPOUND_CANONICALIZED>
1

> <PUBCHEM_CACTVS_COMPLEXITY>
53.7

> <PUBCHEM_CACTVS_HBOND_ACCEPTOR>
2

> <PUBCHEM_CACTVS_HBOND_DONOR>
2

> <PUBCHEM_CACTVS_ROTATABLE_BOND>
2

> <PUBCHEM_CACTVS_SUBSKEYS>
AAADccBjIAAAAAAAAAAAAAAAAAAAAAAAAAAAAAAAAAAAAAAAAAAAHgAYCAAAAADhgAYCAAMCAgAAAAAAAAAAAAAAAAAQIAAIAAACEAAAAAAAAAAAAAAQAAAAAAAAAAAAAAAAAAAAAAAAAAAAAAAAAAAAAA==

> <PUBCHEM_IUPAC_OPENEYE_NAME>
amino-(2-hydroxyethyl)-dimethyl-ammonium

> <PUBCHEM_IUPAC_CAS_NAME>
amino-(2-hydroxyethyl)-dimethylammonium

> <PUBCHEM_IUPAC_NAME>
amino-(2-hydroxyethyl)-dimethylazanium

> <PUBCHEM_IUPAC_SYSTEMATIC_NAME>
azanyl-(2-hydroxyethyl)-dimethyl-azanium

> <PUBCHEM_IUPAC_TRADITIONAL_NAME>
amino-(2-hydroxyethyl)-dimethyl-ammonium

> <PUBCHEM_IUPAC_INCHI>
InChI=1S/C4H13N2O/c1-6(2,5)3-4-7/h7H,3-5H2,1-2H3/q+1

> <PUBCHEM_IUPAC_INCHIKEY>
AJDKDFHZEYMLII-UHFFFAOYSA-N

> <PUBCHEM_XLOGP3_AA>
-1.2

> <PUBCHEM_EXACT_MASS>
105.102788

> <PUBCHEM_MOLECULAR_FORMULA>
C4H13N2O+

> <PUBCHEM_MOLECULAR_WEIGHT>
105.15882

> <PUBCHEM_OPENEYE_CAN_SMILES>
C[N+](C)(CCO)N

> <PUBCHEM_OPENEYE_ISO_SMILES>
C[N+](C)(CCO)N

> <PUBCHEM_CACTVS_TPSA>
46.2

> <PUBCHEM_MONOISOTOPIC_WEIGHT>
105.102788

> <PUBCHEM_TOTAL_CHARGE>
1

> <PUBCHEM_HEAVY_ATOM_COUNT>
7

> <PUBCHEM_ATOM_DEF_STEREO_COUNT>
0

> <PUBCHEM_ATOM_UDEF_STEREO_COUNT>
0

> <PUBCHEM_BOND_DEF_STEREO_COUNT>
0

> <PUBCHEM_BOND_UDEF_STEREO_COUNT>
0

> <PUBCHEM_ISOTOPIC_ATOM_COUNT>
0

> <PUBCHEM_COMPONENT_COUNT>
1

> <PUBCHEM_CACTVS_TAUTO_COUNT>
1

> <PUBCHEM_COORDINATE_TYPE>
1
5
255

$$$$

