10696
  -OEChem-06261204513D

 22 22  0     0  0  0  0  0  0999 V2000
    3.0535    0.0004   -0.0001 O   0  0  0  0  0  0  0  0  0  0  0  0
   -1.0973   -0.0001   -0.0004 C   0  0  0  0  0  0  0  0  0  0  0  0
   -0.4001    1.2080   -0.0004 C   0  0  0  0  0  0  0  0  0  0  0  0
   -0.3998   -1.2081    0.0000 C   0  0  0  0  0  0  0  0  0  0  0  0
    0.9947    1.2081   -0.0002 C   0  0  0  0  0  0  0  0  0  0  0  0
    0.9952   -1.2080    0.0003 C   0  0  0  0  0  0  0  0  0  0  0  0
   -2.5931   -0.0002    0.0002 C   0  0  0  0  0  0  0  0  0  0  0  0
    1.6925    0.0002    0.0002 C   0  0  0  0  0  0  0  0  0  0  0  0
   -1.1232    2.5150    0.0004 C   0  0  0  0  0  0  0  0  0  0  0  0
   -1.1226   -2.5152    0.0000 C   0  0  0  0  0  0  0  0  0  0  0  0
    1.5420    2.1477    0.0012 H   0  0  0  0  0  0  0  0  0  0  0  0
    1.5490   -2.1437    0.0018 H   0  0  0  0  0  0  0  0  0  0  0  0
   -3.0108   -0.8670    0.5211 H   0  0  0  0  0  0  0  0  0  0  0  0
   -3.0105    0.8649    0.5245 H   0  0  0  0  0  0  0  0  0  0  0  0
   -2.9668    0.0018   -1.0288 H   0  0  0  0  0  0  0  0  0  0  0  0
   -1.6177    2.6799    0.9631 H   0  0  0  0  0  0  0  0  0  0  0  0
   -0.4375    3.3543   -0.1620 H   0  0  0  0  0  0  0  0  0  0  0  0
   -1.8626    2.5554   -0.8064 H   0  0  0  0  0  0  0  0  0  0  0  0
   -0.4362   -3.3543   -0.1611 H   0  0  0  0  0  0  0  0  0  0  0  0
   -1.6185   -2.6802    0.9619 H   0  0  0  0  0  0  0  0  0  0  0  0
   -1.8607   -2.5560   -0.8080 H   0  0  0  0  0  0  0  0  0  0  0  0
    3.3690    0.9205   -0.0004 H   0  0  0  0  0  0  0  0  0  0  0  0
  1  8  1  0  0  0  0
  1 22  1  0  0  0  0
  2  3  2  0  0  0  0
  2  4  1  0  0  0  0
  2  7  1  0  0  0  0
  3  5  1  0  0  0  0
  3  9  1  0  0  0  0
  4  6  2  0  0  0  0
  4 10  1  0  0  0  0
  5  8  2  0  0  0  0
  5 11  1  0  0  0  0
  6  8  1  0  0  0  0
  6 12  1  0  0  0  0
  7 13  1  0  0  0  0
  7 14  1  0  0  0  0
  7 15  1  0  0  0  0
  9 16  1  0  0  0  0
  9 17  1  0  0  0  0
  9 18  1  0  0  0  0
 10 19  1  0  0  0  0
 10 20  1  0  0  0  0
 10 21  1  0  0  0  0
M  END
> <PUBCHEM_COMPOUND_CID>
10696

> <PUBCHEM_CONFORMER_RMSD>
0.4

> <PUBCHEM_CONFORMER_DIVERSEORDER>
1

> <PUBCHEM_MMFF94_PARTIAL_CHARGES>
13
1 -0.53
10 0.14
11 0.15
12 0.15
2 -0.14
22 0.45
3 -0.14
4 -0.14
5 -0.15
6 -0.15
7 0.14
8 0.08
9 0.14

> <PUBCHEM_EFFECTIVE_ROTOR_COUNT>
0

> <PUBCHEM_PHARMACOPHORE_FEATURES>
2
1 1 donor
6 2 3 4 5 6 8 rings

> <PUBCHEM_HEAVY_ATOM_COUNT>
10

> <PUBCHEM_ATOM_DEF_STEREO_COUNT>
0

> <PUBCHEM_ATOM_UDEF_STEREO_COUNT>
0

> <PUBCHEM_BOND_DEF_STEREO_COUNT>
0

> <PUBCHEM_BOND_UDEF_STEREO_COUNT>
0

> <PUBCHEM_ISOTOPIC_ATOM_COUNT>
0

> <PUBCHEM_COMPONENT_COUNT>
1

> <PUBCHEM_CACTVS_TAUTO_COUNT>
10

> <PUBCHEM_CONFORMER_ID>
000029C800000001

> <PUBCHEM_MMFF94_ENERGY>
27.2146

> <PUBCHEM_FEATURE_SELFOVERLAP>
10.148

> <PUBCHEM_SHAPE_FINGERPRINT>
12423570 1 10034845080322996438
16945 1 18410855460275854854
18185500 45 18267585697736276070
193761 8 17762055849532574535
20871998 184 18188205395118067110
21040471 1 18266459995645835908
23552423 10 17984422927964687870
2748010 2 18120938295811271092
5084963 1 18042125517006838210

> <PUBCHEM_SHAPE_MULTIPOLES>
199.93
2.89
2.51
0.61
1.09
0
0
0
0
-1.14
0
-0.03
0
0

> <PUBCHEM_SHAPE_SELFOVERLAP>
414.007

> <PUBCHEM_SHAPE_VOLUME>
117.8

> <PUBCHEM_COORDINATE_TYPE>
2
5
10

$$$$

