47205026
  -OEChem-06241222573D

 36 37  0     0  0  0  0  0  0999 V2000
    2.7878    0.9376   -1.2792 O   0  0  0  0  0  0  0  0  0  0  0  0
   -3.6754   -0.3283    0.3231 O   0  0  0  0  0  0  0  0  0  0  0  0
    2.4174    0.2491    0.9070 N   0  0  0  0  0  0  0  0  0  0  0  0
    0.6314   -2.3535    1.1323 N   0  0  0  0  0  0  0  0  0  0  0  0
   -0.3307   -3.0953    0.5575 N   0  0  0  0  0  0  0  0  0  0  0  0
    0.7909    3.0683   -0.3997 C   0  0  0  0  0  0  0  0  0  0  0  0
    2.0183    2.5540    0.3505 C   0  0  0  0  0  0  0  0  0  0  0  0
   -0.3988    2.1637   -0.2078 C   0  0  0  0  0  0  0  0  0  0  0  0
    2.4514    1.1780   -0.1228 C   0  0  0  0  0  0  0  0  0  0  0  0
    2.7851   -1.1340    0.7146 C   0  0  0  0  0  0  0  0  0  0  0  0
   -0.6221    1.1074   -1.0910 C   0  0  0  0  0  0  0  0  0  0  0  0
   -1.2766    2.3826    0.8539 C   0  0  0  0  0  0  0  0  0  0  0  0
    1.6185   -1.9693    0.2728 C   0  0  0  0  0  0  0  0  0  0  0  0
   -1.7234    0.2703   -0.9128 C   0  0  0  0  0  0  0  0  0  0  0  0
   -2.3780    1.5454    1.0321 C   0  0  0  0  0  0  0  0  0  0  0  0
   -2.6013    0.4892    0.1488 C   0  0  0  0  0  0  0  0  0  0  0  0
    1.2786   -2.4968   -0.9491 C   0  0  0  0  0  0  0  0  0  0  0  0
    0.0700   -3.1793   -0.7139 C   0  0  0  0  0  0  0  0  0  0  0  0
   -3.8430   -1.3891   -0.6164 C   0  0  0  0  0  0  0  0  0  0  0  0
    0.5471    4.0819   -0.0582 H   0  0  0  0  0  0  0  0  0  0  0  0
    1.0114    3.1566   -1.4713 H   0  0  0  0  0  0  0  0  0  0  0  0
    2.8623    3.2336    0.1834 H   0  0  0  0  0  0  0  0  0  0  0  0
    1.8243    2.5555    1.4295 H   0  0  0  0  0  0  0  0  0  0  0  0
    3.1761   -1.5063    1.6676 H   0  0  0  0  0  0  0  0  0  0  0  0
    3.5900   -1.1938   -0.0264 H   0  0  0  0  0  0  0  0  0  0  0  0
    2.1018    0.5268    1.8315 H   0  0  0  0  0  0  0  0  0  0  0  0
    0.0477    0.9291   -1.9278 H   0  0  0  0  0  0  0  0  0  0  0  0
   -1.1119    3.2008    1.5499 H   0  0  0  0  0  0  0  0  0  0  0  0
   -1.8386   -0.5290   -1.6368 H   0  0  0  0  0  0  0  0  0  0  0  0
   -3.0580    1.7203    1.8614 H   0  0  0  0  0  0  0  0  0  0  0  0
    1.8240   -2.3998   -1.8763 H   0  0  0  0  0  0  0  0  0  0  0  0
    0.5492   -2.1447    2.1196 H   0  0  0  0  0  0  0  0  0  0  0  0
   -0.5363   -3.7329   -1.4163 H   0  0  0  0  0  0  0  0  0  0  0  0
   -4.7460   -1.9367   -0.3273 H   0  0  0  0  0  0  0  0  0  0  0  0
   -3.0119   -2.1001   -0.5746 H   0  0  0  0  0  0  0  0  0  0  0  0
   -4.0117   -1.0070   -1.6289 H   0  0  0  0  0  0  0  0  0  0  0  0
  1  9  2  0  0  0  0
  2 16  1  0  0  0  0
  2 19  1  0  0  0  0
  3  9  1  0  0  0  0
  3 10  1  0  0  0  0
  3 26  1  0  0  0  0
  4  5  1  0  0  0  0
  4 13  1  0  0  0  0
  4 32  1  0  0  0  0
  5 18  2  0  0  0  0
  6  7  1  0  0  0  0
  6  8  1  0  0  0  0
  6 20  1  0  0  0  0
  6 21  1  0  0  0  0
  7  9  1  0  0  0  0
  7 22  1  0  0  0  0
  7 23  1  0  0  0  0
  8 11  2  0  0  0  0
  8 12  1  0  0  0  0
 10 13  1  0  0  0  0
 10 24  1  0  0  0  0
 10 25  1  0  0  0  0
 11 14  1  0  0  0  0
 11 27  1  0  0  0  0
 12 15  2  0  0  0  0
 12 28  1  0  0  0  0
 13 17  2  0  0  0  0
 14 16  2  0  0  0  0
 14 29  1  0  0  0  0
 15 16  1  0  0  0  0
 15 30  1  0  0  0  0
 17 18  1  0  0  0  0
 17 31  1  0  0  0  0
 18 33  1  0  0  0  0
 19 34  1  0  0  0  0
 19 35  1  0  0  0  0
 19 36  1  0  0  0  0
M  END
> <PUBCHEM_COMPOUND_CID>
47205026

> <PUBCHEM_CONFORMER_RMSD>
0.8

> <PUBCHEM_CONFORMER_DIVERSEORDER>
1
67
126
136
55
150
65
123
146
133
74
53
70
134
151
114
27
124
84
24
75
97
71
104
152
99
144
23
3
140
51
7
19
142
64
112
13
103
139
60
94
113
34
4
107
25
137
95
5
2
101
149
132
8
32
30
14
6
68
91
12
78
26
45
44
92
79
33
54
115
116
105
106
16
77
143
127
21
100
10
39
63
81
87
35
130
90
129
9
111
89
62
38
76
15
128
138
28
48
125
61
147
29
18
148
80
41
11
118
56
141
93
85
72
135
52
47
69
43
66
110
73
98
49
59
120
145
96
119
102
122
131
57
58
86
17
117
121
22
42
88
108
37
109
50
40
82
36
83
46
20
31

> <PUBCHEM_MMFF94_PARTIAL_CHARGES>
27
1 -0.57
10 0.48
11 -0.15
12 -0.15
13 -0.33
14 -0.15
15 -0.15
16 0.08
17 -0.15
18 0.14
19 0.28
2 -0.36
26 0.37
27 0.15
28 0.15
29 0.15
3 -0.73
30 0.15
31 0.15
32 0.27
33 0.15
4 0.3
5 -0.71
6 0.14
7 0.06
8 -0.14
9 0.57

> <PUBCHEM_EFFECTIVE_ROTOR_COUNT>
7

> <PUBCHEM_PHARMACOPHORE_FEATURES>
7
1 1 acceptor
1 2 acceptor
1 3 donor
1 4 donor
1 5 acceptor
5 4 5 13 17 18 rings
6 8 11 12 14 15 16 rings

> <PUBCHEM_HEAVY_ATOM_COUNT>
19

> <PUBCHEM_ATOM_DEF_STEREO_COUNT>
0

> <PUBCHEM_ATOM_UDEF_STEREO_COUNT>
0

> <PUBCHEM_BOND_DEF_STEREO_COUNT>
0

> <PUBCHEM_BOND_UDEF_STEREO_COUNT>
0

> <PUBCHEM_ISOTOPIC_ATOM_COUNT>
0

> <PUBCHEM_COMPONENT_COUNT>
1

> <PUBCHEM_CACTVS_TAUTO_COUNT>
4

> <PUBCHEM_CONFORMER_ID>
02D04AA200000001

> <PUBCHEM_MMFF94_ENERGY>
37.6735

> <PUBCHEM_FEATURE_SELFOVERLAP>
35.52

> <PUBCHEM_SHAPE_FINGERPRINT>
104564 63 16899611615975487428
1100329 8 17977670809725931840
12054548 360 17759791942233021094
12553582 1 17834674172788448423
12596599 1 17752190936455448970
13140716 1 18193286401759419256
14178342 30 18263091074733492760
1420 336 17905891375002527646
14251705 54 18339927124777657051
14251711 518 17404583767107803899
14787075 74 17607817092759643033
15209289 33 18334289886187266580
17492 54 18128540370808840063
21197605 99 17691956069683771619
21421861 104 18264187215513087073
2748010 2 16899340637919849668
2803657 2 17977983139985035078
3014063 31 16823908037338477959
3524813 1 15965999761607304566
44154327 71 18411700950432067111
484985 159 14538386742915327546
6287921 2 18114174284950756979
6438718 38 17034703154945173606
6443956 14 18341051904125667245
8199 65 18411984632800096968

> <PUBCHEM_SHAPE_MULTIPOLES>
364.33
4.84
4.38
1.13
2.5
0.99
-0.05
0.91
0.36
-1.24
-0.14
-0.09
0.04
-0.58

> <PUBCHEM_SHAPE_SELFOVERLAP>
762.987

> <PUBCHEM_SHAPE_VOLUME>
206.1

> <PUBCHEM_COORDINATE_TYPE>
2
5
10

$$$$

