12141
  -OEChem-06261206353D

 23 23  0     0  0  0  0  0  0999 V2000
    1.5227   -0.2657   -0.0396 O   0  0  0  0  0  0  0  0  0  0  0  0
    3.7494    1.2574    0.7022 O   0  0  0  0  0  0  0  0  0  0  0  0
   -0.8200   -0.2748   -0.4496 C   0  0  0  0  0  0  0  0  0  0  0  0
    0.5249   -0.6384   -0.9822 C   0  0  0  0  0  0  0  0  0  0  0  0
    2.8252   -0.5929   -0.5035 C   0  0  0  0  0  0  0  0  0  0  0  0
   -1.5357   -1.1908    0.3213 C   0  0  0  0  0  0  0  0  0  0  0  0
   -1.3620    0.9814   -0.7220 C   0  0  0  0  0  0  0  0  0  0  0  0
    3.8438   -0.1515    0.5298 C   0  0  0  0  0  0  0  0  0  0  0  0
   -2.7934   -0.8509    0.8197 C   0  0  0  0  0  0  0  0  0  0  0  0
   -2.6196    1.3212   -0.2235 C   0  0  0  0  0  0  0  0  0  0  0  0
   -3.3353    0.4050    0.5473 C   0  0  0  0  0  0  0  0  0  0  0  0
    0.5770   -1.7175   -1.1741 H   0  0  0  0  0  0  0  0  0  0  0  0
    0.7036   -0.1283   -1.9372 H   0  0  0  0  0  0  0  0  0  0  0  0
    2.9028   -1.6736   -0.6650 H   0  0  0  0  0  0  0  0  0  0  0  0
    3.0085   -0.0696   -1.4492 H   0  0  0  0  0  0  0  0  0  0  0  0
   -1.1234   -2.1717    0.5425 H   0  0  0  0  0  0  0  0  0  0  0  0
   -0.8134    1.7048   -1.3195 H   0  0  0  0  0  0  0  0  0  0  0  0
    4.8585   -0.4015    0.2069 H   0  0  0  0  0  0  0  0  0  0  0  0
    3.6406   -0.6214    1.4973 H   0  0  0  0  0  0  0  0  0  0  0  0
   -3.3504   -1.5639    1.4205 H   0  0  0  0  0  0  0  0  0  0  0  0
   -3.0415    2.2994   -0.4349 H   0  0  0  0  0  0  0  0  0  0  0  0
   -4.3144    0.6699    0.9357 H   0  0  0  0  0  0  0  0  0  0  0  0
    4.4120    1.5077    1.3685 H   0  0  0  0  0  0  0  0  0  0  0  0
  1  4  1  0  0  0  0
  1  5  1  0  0  0  0
  2  8  1  0  0  0  0
  2 23  1  0  0  0  0
  3  4  1  0  0  0  0
  3  6  2  0  0  0  0
  3  7  1  0  0  0  0
  4 12  1  0  0  0  0
  4 13  1  0  0  0  0
  5  8  1  0  0  0  0
  5 14  1  0  0  0  0
  5 15  1  0  0  0  0
  6  9  1  0  0  0  0
  6 16  1  0  0  0  0
  7 10  2  0  0  0  0
  7 17  1  0  0  0  0
  8 18  1  0  0  0  0
  8 19  1  0  0  0  0
  9 11  2  0  0  0  0
  9 20  1  0  0  0  0
 10 11  1  0  0  0  0
 10 21  1  0  0  0  0
 11 22  1  0  0  0  0
M  END
> <PUBCHEM_COMPOUND_CID>
12141

> <PUBCHEM_CONFORMER_RMSD>
0.6

> <PUBCHEM_CONFORMER_DIVERSEORDER>
1
12
6
3
11
4
10
7
2
5
8
9

> <PUBCHEM_MMFF94_PARTIAL_CHARGES>
17
1 -0.56
10 -0.15
11 -0.15
16 0.15
17 0.15
2 -0.68
20 0.15
21 0.15
22 0.15
23 0.4
3 -0.14
4 0.42
5 0.28
6 -0.15
7 -0.15
8 0.28
9 -0.15

> <PUBCHEM_EFFECTIVE_ROTOR_COUNT>
4

> <PUBCHEM_PHARMACOPHORE_FEATURES>
4
1 1 acceptor
1 2 acceptor
1 2 donor
6 3 6 7 9 10 11 rings

> <PUBCHEM_HEAVY_ATOM_COUNT>
11

> <PUBCHEM_ATOM_DEF_STEREO_COUNT>
0

> <PUBCHEM_ATOM_UDEF_STEREO_COUNT>
0

> <PUBCHEM_BOND_DEF_STEREO_COUNT>
0

> <PUBCHEM_BOND_UDEF_STEREO_COUNT>
0

> <PUBCHEM_ISOTOPIC_ATOM_COUNT>
0

> <PUBCHEM_COMPONENT_COUNT>
1

> <PUBCHEM_CACTVS_TAUTO_COUNT>
1

> <PUBCHEM_CONFORMER_ID>
00002F6D00000001

> <PUBCHEM_MMFF94_ENERGY>
23.3758

> <PUBCHEM_FEATURE_SELFOVERLAP>
20.301

> <PUBCHEM_SHAPE_FINGERPRINT>
10857977 72 18272360975804713869
122479 349 18335421330496163053
12251169 10 18202561765622943620
12897270 3 7565336518245605510
12932764 1 18334292084999642774
13024252 1 12391510897718206007
14993402 34 4750872611699274209
18186145 218 17095516314575888286
20281407 28 11671772776071280620
20361792 2 14764346024640581110
20528008 55 18413110567282949375
20645464 45 18335416898110759359
20871998 184 18338505362155102047
22485316 2 13039182593824663018
23402539 116 18413113866524753703
23403322 49 10807667700536697368
3086196 2 18201153239936445267
3248919 1 17774999089887821694
369184 2 18410571825199788663
90316 7 17417813992946067181
93112 12 7637399640302062762

> <PUBCHEM_SHAPE_MULTIPOLES>
214.64
6.85
1.27
0.95
5.87
0.17
-0.04
1.12
2.21
-0.51
0.07
0.12
-0.01
0.65

> <PUBCHEM_SHAPE_SELFOVERLAP>
429.871

> <PUBCHEM_SHAPE_VOLUME>
126.8

> <PUBCHEM_COORDINATE_TYPE>
2
5
10

$$$$

