17395332
  -OEChem-06241222492D

 33 34  0     0  0  0  0  0  0999 V2000
    5.4641   -4.5194    0.0000 F   0  0  0  0  0  0  0  0  0  0  0  0
    2.0000   -4.5194    0.0000 F   0  0  0  0  0  0  0  0  0  0  0  0
    5.5211    3.5684    0.0000 O   0  0  0  0  0  0  0  0  0  0  0  0
    6.3301   -0.0194    0.0000 O   0  0  0  0  0  0  0  0  0  0  0  0
    2.8660   -1.0194    0.0000 O   0  0  0  0  0  0  0  0  0  0  0  0
    5.4641    1.4806    0.0000 N   0  0  0  0  0  0  0  0  0  0  0  0
    4.5981   -1.0194    0.0000 N   0  0  0  0  0  0  0  0  0  0  0  0
    6.3301    1.9806    0.0000 C   0  0  0  0  0  0  0  0  0  0  0  0
    4.5981   -0.0194    0.0000 C   0  0  0  0  0  0  0  0  0  0  0  0
    6.3301    2.9806    0.0000 C   0  0  0  0  0  0  0  0  0  0  0  0
    5.4641    0.4806    0.0000 C   0  0  0  0  0  0  0  0  0  0  0  0
    3.7320   -2.5194    0.0000 C   0  0  0  0  0  0  0  0  0  0  0  0
    3.7320   -1.5194    0.0000 C   0  0  0  0  0  0  0  0  0  0  0  0
    7.1391    3.5684    0.0000 C   0  0  0  0  0  0  0  0  0  0  0  0
    2.8660   -3.0194    0.0000 C   0  0  0  0  0  0  0  0  0  0  0  0
    4.5981   -3.0194    0.0000 C   0  0  0  0  0  0  0  0  0  0  0  0
    6.8301    4.5194    0.0000 C   0  0  0  0  0  0  0  0  0  0  0  0
    4.5981   -4.0194    0.0000 C   0  0  0  0  0  0  0  0  0  0  0  0
    2.8660   -4.0194    0.0000 C   0  0  0  0  0  0  0  0  0  0  0  0
    5.8301    4.5194    0.0000 C   0  0  0  0  0  0  0  0  0  0  0  0
    3.7320   -4.5194    0.0000 C   0  0  0  0  0  0  0  0  0  0  0  0
    6.5422    1.3980    0.0000 H   0  0  0  0  0  0  0  0  0  0  0  0
    6.9407    2.0882    0.0000 H   0  0  0  0  0  0  0  0  0  0  0  0
    4.3860    0.5632    0.0000 H   0  0  0  0  0  0  0  0  0  0  0  0
    3.9875   -0.1271    0.0000 H   0  0  0  0  0  0  0  0  0  0  0  0
    4.9272    1.7906    0.0000 H   0  0  0  0  0  0  0  0  0  0  0  0
    5.1350   -1.3294    0.0000 H   0  0  0  0  0  0  0  0  0  0  0  0
    7.7288    3.3768    0.0000 H   0  0  0  0  0  0  0  0  0  0  0  0
    2.3291   -2.7094    0.0000 H   0  0  0  0  0  0  0  0  0  0  0  0
    5.1350   -2.7094    0.0000 H   0  0  0  0  0  0  0  0  0  0  0  0
    7.1946    5.0210    0.0000 H   0  0  0  0  0  0  0  0  0  0  0  0
    5.4657    5.0210    0.0000 H   0  0  0  0  0  0  0  0  0  0  0  0
    3.7320   -5.1394    0.0000 H   0  0  0  0  0  0  0  0  0  0  0  0
  1 18  1  0  0  0  0
  2 19  1  0  0  0  0
  3 10  1  0  0  0  0
  3 20  1  0  0  0  0
  4 11  2  0  0  0  0
  5 13  2  0  0  0  0
  6  8  1  0  0  0  0
  6 11  1  0  0  0  0
  6 26  1  0  0  0  0
  7  9  1  0  0  0  0
  7 13  1  0  0  0  0
  7 27  1  0  0  0  0
  8 10  1  0  0  0  0
  8 22  1  0  0  0  0
  8 23  1  0  0  0  0
  9 11  1  0  0  0  0
  9 24  1  0  0  0  0
  9 25  1  0  0  0  0
 10 14  2  0  0  0  0
 12 13  1  0  0  0  0
 12 15  2  0  0  0  0
 12 16  1  0  0  0  0
 14 17  1  0  0  0  0
 14 28  1  0  0  0  0
 15 19  1  0  0  0  0
 15 29  1  0  0  0  0
 16 18  2  0  0  0  0
 16 30  1  0  0  0  0
 17 20  2  0  0  0  0
 17 31  1  0  0  0  0
 18 21  1  0  0  0  0
 19 21  2  0  0  0  0
 20 32  1  0  0  0  0
 21 33  1  0  0  0  0
M  END
> <PUBCHEM_COMPOUND_CID>
17395332

> <PUBCHEM_COMPOUND_CANONICALIZED>
1

> <PUBCHEM_CACTVS_COMPLEXITY>
371

> <PUBCHEM_CACTVS_HBOND_ACCEPTOR>
5

> <PUBCHEM_CACTVS_HBOND_DONOR>
2

> <PUBCHEM_CACTVS_ROTATABLE_BOND>
5

> <PUBCHEM_CACTVS_SUBSKEYS>
AAADccBzMYAAAAAAAAAAAAAAAAAAASAAAAAwAAAAAAAAAAABwAAAHwAQAAAADAThmA4wBILABECIAqlSkACCCAAkIAAIiIGODMgOZjKEtTuXOSjk1hGYqYeYmQKOAAAAAAAAAAAAAAAAAAAAAAAAAAAAAA==

> <PUBCHEM_IUPAC_OPENEYE_NAME>
3,5-difluoro-N-[2-(2-furylmethylamino)-2-oxo-ethyl]benzamide

> <PUBCHEM_IUPAC_CAS_NAME>
3,5-difluoro-N-[2-(2-furanylmethylamino)-2-oxoethyl]benzamide

> <PUBCHEM_IUPAC_NAME>
3,5-difluoro-N-[2-(furan-2-ylmethylamino)-2-oxoethyl]benzamide

> <PUBCHEM_IUPAC_SYSTEMATIC_NAME>
3,5-bis(fluoranyl)-N-[2-(furan-2-ylmethylamino)-2-oxidanylidene-ethyl]benzamide

> <PUBCHEM_IUPAC_TRADITIONAL_NAME>
3,5-difluoro-N-[2-(2-furfurylamino)-2-keto-ethyl]benzamide

> <PUBCHEM_IUPAC_INCHI>
InChI=1S/C14H12F2N2O3/c15-10-4-9(5-11(16)6-10)14(20)18-8-13(19)17-7-12-2-1-3-21-12/h1-6H,7-8H2,(H,17,19)(H,18,20)

> <PUBCHEM_IUPAC_INCHIKEY>
GWQOAEVHQQXQEO-UHFFFAOYSA-N

> <PUBCHEM_XLOGP3_AA>
1.3

> <PUBCHEM_EXACT_MASS>
294.081599

> <PUBCHEM_MOLECULAR_FORMULA>
C14H12F2N2O3

> <PUBCHEM_MOLECULAR_WEIGHT>
294.253486

> <PUBCHEM_OPENEYE_CAN_SMILES>
C1=COC(=C1)CNC(=O)CNC(=O)C2=CC(=CC(=C2)F)F

> <PUBCHEM_OPENEYE_ISO_SMILES>
C1=COC(=C1)CNC(=O)CNC(=O)C2=CC(=CC(=C2)F)F

> <PUBCHEM_CACTVS_TPSA>
71.3

> <PUBCHEM_MONOISOTOPIC_WEIGHT>
294.081599

> <PUBCHEM_TOTAL_CHARGE>
0

> <PUBCHEM_HEAVY_ATOM_COUNT>
21

> <PUBCHEM_ATOM_DEF_STEREO_COUNT>
0

> <PUBCHEM_ATOM_UDEF_STEREO_COUNT>
0

> <PUBCHEM_BOND_DEF_STEREO_COUNT>
0

> <PUBCHEM_BOND_UDEF_STEREO_COUNT>
0

> <PUBCHEM_ISOTOPIC_ATOM_COUNT>
0

> <PUBCHEM_COMPONENT_COUNT>
1

> <PUBCHEM_CACTVS_TAUTO_COUNT>
4

> <PUBCHEM_COORDINATE_TYPE>
1
5
255

> <PUBCHEM_BONDANNOTATIONS>
10  14  8
12  15  8
12  16  8
14  17  8
15  19  8
16  18  8
17  20  8
18  21  8
19  21  8
3  10  8
3  20  8

$$$$

