12941
  -OEChem-06261207343D

 57 59  0     0  0  0  0  0  0999 V2000
    0.5565    1.9348   -1.2870 O   0  0  0  0  0  0  0  0  0  0  0  0
   -2.2029   -0.4906    1.5683 O   0  0  0  0  0  0  0  0  0  0  0  0
    2.2867   -1.3652    1.5018 O   0  0  0  0  0  0  0  0  0  0  0  0
   -0.8831    0.6911    0.0472 N   0  0  0  0  0  0  0  0  0  0  0  0
    1.4624    0.2434    0.0230 N   0  0  0  0  0  0  0  0  0  0  0  0
   -1.9725    1.5685   -0.3074 C   0  0  0  0  0  0  0  0  0  0  0  0
    2.7890    0.6619   -0.3610 C   0  0  0  0  0  0  0  0  0  0  0  0
   -3.0926    0.7888   -1.0011 C   0  0  0  0  0  0  0  0  0  0  0  0
   -2.4909    2.3069    0.9290 C   0  0  0  0  0  0  0  0  0  0  0  0
    3.5802    1.1417    0.8587 C   0  0  0  0  0  0  0  0  0  0  0  0
    3.5189   -0.4698   -1.0884 C   0  0  0  0  0  0  0  0  0  0  0  0
   -0.0503   -1.3670    1.0645 C   0  0  0  0  0  0  0  0  0  0  0  0
   -4.2792    1.6884   -1.3367 C   0  0  0  0  0  0  0  0  0  0  0  0
   -3.6794    3.2035    0.5917 C   0  0  0  0  0  0  0  0  0  0  0  0
    5.0056    1.5384    0.4835 C   0  0  0  0  0  0  0  0  0  0  0  0
    4.9451   -0.0721   -1.4600 C   0  0  0  0  0  0  0  0  0  0  0  0
   -4.7931    2.4251   -0.1030 C   0  0  0  0  0  0  0  0  0  0  0  0
    5.7307    0.4095   -0.2435 C   0  0  0  0  0  0  0  0  0  0  0  0
    0.3883    1.0140   -0.4798 C   0  0  0  0  0  0  0  0  0  0  0  0
   -1.1492   -0.3461    0.9466 C   0  0  0  0  0  0  0  0  0  0  0  0
    1.3468   -0.8288    0.9134 C   0  0  0  0  0  0  0  0  0  0  0  0
   -0.2767   -2.4662    0.0292 C   0  0  0  0  0  0  0  0  0  0  0  0
   -1.6344   -3.1350    0.2215 C   0  0  0  0  0  0  0  0  0  0  0  0
   -1.8705   -4.2128   -0.8362 C   0  0  0  0  0  0  0  0  0  0  0  0
   -3.2352   -4.8628   -0.6743 C   0  0  0  0  0  0  0  0  0  0  0  0
   -1.6328    2.3331   -1.0163 H   0  0  0  0  0  0  0  0  0  0  0  0
    2.7385    1.5062   -1.0588 H   0  0  0  0  0  0  0  0  0  0  0  0
   -3.4644   -0.0399   -0.3902 H   0  0  0  0  0  0  0  0  0  0  0  0
   -2.7097    0.3354   -1.9243 H   0  0  0  0  0  0  0  0  0  0  0  0
   -1.6866    2.9218    1.3527 H   0  0  0  0  0  0  0  0  0  0  0  0
   -2.8128    1.6422    1.7337 H   0  0  0  0  0  0  0  0  0  0  0  0
    3.6547    0.3943    1.6520 H   0  0  0  0  0  0  0  0  0  0  0  0
    3.0733    2.0054    1.3076 H   0  0  0  0  0  0  0  0  0  0  0  0
    2.9697   -0.7370   -2.0002 H   0  0  0  0  0  0  0  0  0  0  0  0
    3.5723   -1.3850   -0.4901 H   0  0  0  0  0  0  0  0  0  0  0  0
   -0.1145   -1.7853    2.0783 H   0  0  0  0  0  0  0  0  0  0  0  0
   -5.0866    1.0883   -1.7715 H   0  0  0  0  0  0  0  0  0  0  0  0
   -3.9795    2.4184   -2.0988 H   0  0  0  0  0  0  0  0  0  0  0  0
   -3.3457    4.0209   -0.0595 H   0  0  0  0  0  0  0  0  0  0  0  0
   -4.0666    3.6653    1.5072 H   0  0  0  0  0  0  0  0  0  0  0  0
    5.5628    1.8148    1.3858 H   0  0  0  0  0  0  0  0  0  0  0  0
    4.9796    2.4276   -0.1585 H   0  0  0  0  0  0  0  0  0  0  0  0
    4.9166    0.7243   -2.2140 H   0  0  0  0  0  0  0  0  0  0  0  0
    5.4592   -0.9247   -1.9178 H   0  0  0  0  0  0  0  0  0  0  0  0
   -5.5980    3.1106   -0.3913 H   0  0  0  0  0  0  0  0  0  0  0  0
   -5.2250    1.7018    0.5997 H   0  0  0  0  0  0  0  0  0  0  0  0
    6.7237    0.7506   -0.5572 H   0  0  0  0  0  0  0  0  0  0  0  0
    5.8836   -0.4293    0.4467 H   0  0  0  0  0  0  0  0  0  0  0  0
    0.5181   -3.2193    0.1062 H   0  0  0  0  0  0  0  0  0  0  0  0
   -0.2136   -2.0528   -0.9861 H   0  0  0  0  0  0  0  0  0  0  0  0
   -1.6966   -3.5765    1.2233 H   0  0  0  0  0  0  0  0  0  0  0  0
   -2.4495   -2.4116    0.1281 H   0  0  0  0  0  0  0  0  0  0  0  0
   -1.0937   -4.9827   -0.7627 H   0  0  0  0  0  0  0  0  0  0  0  0
   -1.7998   -3.7747   -1.8388 H   0  0  0  0  0  0  0  0  0  0  0  0
   -4.0370   -4.1249   -0.7795 H   0  0  0  0  0  0  0  0  0  0  0  0
   -3.3302   -5.3361    0.3081 H   0  0  0  0  0  0  0  0  0  0  0  0
   -3.3810   -5.6331   -1.4381 H   0  0  0  0  0  0  0  0  0  0  0  0
  1 19  2  0  0  0  0
  2 20  2  0  0  0  0
  3 21  2  0  0  0  0
  4  6  1  0  0  0  0
  4 19  1  0  0  0  0
  4 20  1  0  0  0  0
  5  7  1  0  0  0  0
  5 19  1  0  0  0  0
  5 21  1  0  0  0  0
  6  8  1  0  0  0  0
  6  9  1  0  0  0  0
  6 26  1  0  0  0  0
  7 10  1  0  0  0  0
  7 11  1  0  0  0  0
  7 27  1  0  0  0  0
  8 13  1  0  0  0  0
  8 28  1  0  0  0  0
  8 29  1  0  0  0  0
  9 14  1  0  0  0  0
  9 30  1  0  0  0  0
  9 31  1  0  0  0  0
 10 15  1  0  0  0  0
 10 32  1  0  0  0  0
 10 33  1  0  0  0  0
 11 16  1  0  0  0  0
 11 34  1  0  0  0  0
 11 35  1  0  0  0  0
 12 20  1  0  0  0  0
 12 21  1  0  0  0  0
 12 22  1  0  0  0  0
 12 36  1  0  0  0  0
 13 17  1  0  0  0  0
 13 37  1  0  0  0  0
 13 38  1  0  0  0  0
 14 17  1  0  0  0  0
 14 39  1  0  0  0  0
 14 40  1  0  0  0  0
 15 18  1  0  0  0  0
 15 41  1  0  0  0  0
 15 42  1  0  0  0  0
 16 18  1  0  0  0  0
 16 43  1  0  0  0  0
 16 44  1  0  0  0  0
 17 45  1  0  0  0  0
 17 46  1  0  0  0  0
 18 47  1  0  0  0  0
 18 48  1  0  0  0  0
 22 23  1  0  0  0  0
 22 49  1  0  0  0  0
 22 50  1  0  0  0  0
 23 24  1  0  0  0  0
 23 51  1  0  0  0  0
 23 52  1  0  0  0  0
 24 25  1  0  0  0  0
 24 53  1  0  0  0  0
 24 54  1  0  0  0  0
 25 55  1  0  0  0  0
 25 56  1  0  0  0  0
 25 57  1  0  0  0  0
M  END
> <PUBCHEM_COMPOUND_CID>
12941

> <PUBCHEM_CONFORMER_RMSD>
0.8

> <PUBCHEM_CONFORMER_DIVERSEORDER>
1
6
5
12
13
2
11
16
10
14
8
17
4
3
7
9
15

> <PUBCHEM_MMFF94_PARTIAL_CHARGES>
11
1 -0.57
12 0.12
19 0.69
2 -0.57
20 0.57
21 0.57
3 -0.57
4 -0.42
5 -0.42
6 0.3
7 0.3

> <PUBCHEM_EFFECTIVE_ROTOR_COUNT>
8

> <PUBCHEM_PHARMACOPHORE_FEATURES>
8
1 1 acceptor
1 12 anion
1 2 acceptor
1 25 hydrophobe
1 3 acceptor
6 4 5 12 19 20 21 rings
6 6 8 9 13 14 17 rings
6 7 10 11 15 16 18 rings

> <PUBCHEM_HEAVY_ATOM_COUNT>
25

> <PUBCHEM_ATOM_DEF_STEREO_COUNT>
0

> <PUBCHEM_ATOM_UDEF_STEREO_COUNT>
0

> <PUBCHEM_BOND_DEF_STEREO_COUNT>
0

> <PUBCHEM_BOND_UDEF_STEREO_COUNT>
0

> <PUBCHEM_ISOTOPIC_ATOM_COUNT>
0

> <PUBCHEM_COMPONENT_COUNT>
1

> <PUBCHEM_CACTVS_TAUTO_COUNT>
1

> <PUBCHEM_CONFORMER_ID>
0000328D00000001

> <PUBCHEM_MMFF94_ENERGY>
40.7386

> <PUBCHEM_FEATURE_SELFOVERLAP>
40.594

> <PUBCHEM_SHAPE_FINGERPRINT>
10411042 1 17833553392578393155
11045515 52 17832989347561175339
11115154 58 17905340529069696663
11578080 2 17752770125975408657
12236239 1 18264211486189303261
12293681 4 18114178657860545536
12643181 29 18338226181392495862
12788726 201 17982170011554639538
12969540 114 18342184417744088828
13004483 165 17829895334656722958
13140716 1 17696456399985545754
13540713 5 18059029319359117282
13583140 156 17531528664483559380
13590594 115 17907293257372541715
14251757 5 18337680698575214639
14790565 3 18266457804980997544
15131766 46 14906463323138092750
1601671 61 17774995843135476900
17138139 8 17757035239592161239
17492 54 17988099849925625983
17539 30 18263647255955553351
1813 80 17759794854025928567
19301676 85 17685192260660217422
20602899 9 18115020917620549955
20739085 24 17626933523905631556
21033648 29 18334296482814461544
21307412 95 17971167435578434254
21344244 181 18115018714555775591
22182313 1 18197189616213436715
2255824 54 17832991924778630963
22620623 9 18337099065202630838
23419403 2 17026852719590870083
23557571 272 18192155897594536882
23558518 356 18127407839604666292
23559900 14 14852474127684955409
23566358 27 17758958512903976159
23929065 36 18120397374971984408
25147074 1 17988379117173569738
283562 15 18126292934861581050
34934 24 17846780736814528920
38695281 34 18268148841427475765
474 4 18125162886105890729
633830 44 18115875272446738869
7164475 11 18122902032358363438
7399639 24 17464264825168049440

> <PUBCHEM_SHAPE_MULTIPOLES>
486.92
9.87
4.72
1.33
9.44
6.62
0
-5.92
2.31
-8.51
0.64
0.13
0
-0.25

> <PUBCHEM_SHAPE_SELFOVERLAP>
1005.314

> <PUBCHEM_SHAPE_VOLUME>
273

> <PUBCHEM_COORDINATE_TYPE>
2
5
10

$$$$

