17396288
  -OEChem-06241222552D

 39 42  0     1  0  0  0  0  0999 V2000
    4.5981    0.4330    0.0000 S   0  0  0  0  0  0  0  0  0  0  0  0
    8.1424    0.6283    0.0000 S   0  0  0  0  0  0  0  0  0  0  0  0
    6.3301   -0.5670    0.0000 O   0  0  0  0  0  0  0  0  0  0  0  0
    6.3301    3.4330    0.0000 O   0  0  0  0  0  0  0  0  0  0  0  0
    5.4641   -2.0670    0.0000 N   0  0  0  0  0  0  0  0  0  0  0  0
    5.4641    1.9330    0.0000 N   0  0  0  0  0  0  0  0  0  0  0  0
    6.3301    0.4330    0.0000 N   0  0  0  0  0  0  0  0  0  0  0  0
    6.3301   -2.5670    0.0000 C   0  0  0  0  0  0  0  0  0  0  0  0
    6.8301   -3.4330    0.0000 C   0  0  0  0  0  0  0  0  0  0  0  0
    7.3301   -2.5670    0.0000 C   0  0  0  0  0  0  0  0  0  0  0  0
    5.4641   -1.0670    0.0000 C   0  0  0  0  0  0  0  0  0  0  0  0
    4.5981   -0.5670    0.0000 C   0  0  3  0  0  0  0  0  0  0  0  0
    3.7320   -1.0670    0.0000 C   0  0  0  0  0  0  0  0  0  0  0  0
    2.8660   -0.5670    0.0000 C   0  0  0  0  0  0  0  0  0  0  0  0
    3.7320   -2.0670    0.0000 C   0  0  0  0  0  0  0  0  0  0  0  0
    5.4641    0.9330    0.0000 C   0  0  0  0  0  0  0  0  0  0  0  0
    2.0000   -1.0670    0.0000 C   0  0  0  0  0  0  0  0  0  0  0  0
    2.8660   -2.5670    0.0000 C   0  0  0  0  0  0  0  0  0  0  0  0
    7.1962    1.9330    0.0000 C   0  0  0  0  0  0  0  0  0  0  0  0
    7.1962    0.9330    0.0000 C   0  0  0  0  0  0  0  0  0  0  0  0
    6.3301    2.4330    0.0000 C   0  0  0  0  0  0  0  0  0  0  0  0
    2.0000   -2.0670    0.0000 C   0  0  0  0  0  0  0  0  0  0  0  0
    8.1424    2.2378    0.0000 C   0  0  0  0  0  0  0  0  0  0  0  0
    8.7260    1.4330    0.0000 C   0  0  0  0  0  0  0  0  0  0  0  0
    6.4906   -1.9681    0.0000 H   0  0  0  0  0  0  0  0  0  0  0  0
    6.3552   -3.8315    0.0000 H   0  0  0  0  0  0  0  0  0  0  0  0
    7.3051   -3.8315    0.0000 H   0  0  0  0  0  0  0  0  0  0  0  0
    7.9127   -2.7790    0.0000 H   0  0  0  0  0  0  0  0  0  0  0  0
    7.4378   -1.9564    0.0000 H   0  0  0  0  0  0  0  0  0  0  0  0
    4.9272   -2.3770    0.0000 H   0  0  0  0  0  0  0  0  0  0  0  0
    5.1350   -0.2570    0.0000 H   0  0  0  0  0  0  0  0  0  0  0  0
    2.8660    0.0530    0.0000 H   0  0  0  0  0  0  0  0  0  0  0  0
    4.2690   -2.3770    0.0000 H   0  0  0  0  0  0  0  0  0  0  0  0
    4.9272    2.2430    0.0000 H   0  0  0  0  0  0  0  0  0  0  0  0
    1.4631   -0.7570    0.0000 H   0  0  0  0  0  0  0  0  0  0  0  0
    2.8660   -3.1870    0.0000 H   0  0  0  0  0  0  0  0  0  0  0  0
    1.4631   -2.3770    0.0000 H   0  0  0  0  0  0  0  0  0  0  0  0
    8.3350    2.8271    0.0000 H   0  0  0  0  0  0  0  0  0  0  0  0
    9.3460    1.4330    0.0000 H   0  0  0  0  0  0  0  0  0  0  0  0
  1 12  1  0  0  0  0
  1 16  1  0  0  0  0
  2 20  1  0  0  0  0
  2 24  1  0  0  0  0
  3 11  2  0  0  0  0
  4 21  2  0  0  0  0
  5  8  1  0  0  0  0
  5 11  1  0  0  0  0
  5 30  1  0  0  0  0
  6 16  1  0  0  0  0
  6 21  1  0  0  0  0
  6 34  1  0  0  0  0
  7 16  2  0  0  0  0
  7 20  1  0  0  0  0
  8  9  1  0  0  0  0
  8 10  1  0  0  0  0
  8 25  1  0  0  0  0
  9 10  1  0  0  0  0
  9 26  1  0  0  0  0
  9 27  1  0  0  0  0
 10 28  1  0  0  0  0
 10 29  1  0  0  0  0
 11 12  1  0  0  0  0
 12 13  1  0  0  0  0
 12 31  1  0  0  0  0
 13 14  2  0  0  0  0
 13 15  1  0  0  0  0
 14 17  1  0  0  0  0
 14 32  1  0  0  0  0
 15 18  2  0  0  0  0
 15 33  1  0  0  0  0
 17 22  2  0  0  0  0
 17 35  1  0  0  0  0
 18 22  1  0  0  0  0
 18 36  1  0  0  0  0
 19 20  2  0  0  0  0
 19 21  1  0  0  0  0
 19 23  1  0  0  0  0
 22 37  1  0  0  0  0
 23 24  2  0  0  0  0
 23 38  1  0  0  0  0
 24 39  1  0  0  0  0
M  END
> <PUBCHEM_COMPOUND_CID>
17396288

> <PUBCHEM_COMPOUND_CANONICALIZED>
1

> <PUBCHEM_CACTVS_COMPLEXITY>
544

> <PUBCHEM_CACTVS_HBOND_ACCEPTOR>
5

> <PUBCHEM_CACTVS_HBOND_DONOR>
2

> <PUBCHEM_CACTVS_ROTATABLE_BOND>
5

> <PUBCHEM_CACTVS_SUBSKEYS>
AAADccB7MABgAAAAAAAAAAAAGAAAASAAAAAwQAAAAAAAAEABwAAAHgQQAAAADCjF2ASxgYLAAAisAiFSdACDEIFkCBBJiJkIRMgIIDqg3ZGEIYhglgCoyccYiICOAAAAAAAAAAAAAAAAAAAAAAAAAAAAAA==

> <PUBCHEM_IUPAC_OPENEYE_NAME>
N-cyclopropyl-2-[(4-oxo-3H-thieno[2,3-d]pyrimidin-2-yl)sulfanyl]-2-phenyl-acetamide

> <PUBCHEM_IUPAC_CAS_NAME>
N-cyclopropyl-2-[(4-oxo-3H-thieno[2,3-d]pyrimidin-2-yl)thio]-2-phenylacetamide

> <PUBCHEM_IUPAC_NAME>
N-cyclopropyl-2-[(4-oxo-3H-thieno[2,3-d]pyrimidin-2-yl)sulfanyl]-2-phenylacetamide

> <PUBCHEM_IUPAC_SYSTEMATIC_NAME>
N-cyclopropyl-2-[(4-oxidanylidene-3H-thieno[2,3-d]pyrimidin-2-yl)sulfanyl]-2-phenyl-ethanamide

> <PUBCHEM_IUPAC_TRADITIONAL_NAME>
N-cyclopropyl-2-[(4-keto-3H-thieno[2,3-d]pyrimidin-2-yl)thio]-2-phenyl-acetamide

> <PUBCHEM_IUPAC_INCHI>
InChI=1S/C17H15N3O2S2/c21-14-12-8-9-23-16(12)20-17(19-14)24-13(10-4-2-1-3-5-10)15(22)18-11-6-7-11/h1-5,8-9,11,13H,6-7H2,(H,18,22)(H,19,20,21)

> <PUBCHEM_IUPAC_INCHIKEY>
XBKBUVSIWPFBPW-UHFFFAOYSA-N

> <PUBCHEM_XLOGP3_AA>
3.2

> <PUBCHEM_EXACT_MASS>
357.060569

> <PUBCHEM_MOLECULAR_FORMULA>
C17H15N3O2S2

> <PUBCHEM_MOLECULAR_WEIGHT>
357.4499

> <PUBCHEM_OPENEYE_CAN_SMILES>
C1CC1NC(=O)C(C2=CC=CC=C2)SC3=NC4=C(C=CS4)C(=O)N3

> <PUBCHEM_OPENEYE_ISO_SMILES>
C1CC1NC(=O)C(C2=CC=CC=C2)SC3=NC4=C(C=CS4)C(=O)N3

> <PUBCHEM_CACTVS_TPSA>
124

> <PUBCHEM_MONOISOTOPIC_WEIGHT>
357.060569

> <PUBCHEM_TOTAL_CHARGE>
0

> <PUBCHEM_HEAVY_ATOM_COUNT>
24

> <PUBCHEM_ATOM_DEF_STEREO_COUNT>
0

> <PUBCHEM_ATOM_UDEF_STEREO_COUNT>
1

> <PUBCHEM_BOND_DEF_STEREO_COUNT>
0

> <PUBCHEM_BOND_UDEF_STEREO_COUNT>
0

> <PUBCHEM_ISOTOPIC_ATOM_COUNT>
0

> <PUBCHEM_COMPONENT_COUNT>
1

> <PUBCHEM_CACTVS_TAUTO_COUNT>
8

> <PUBCHEM_COORDINATE_TYPE>
1
5
255

> <PUBCHEM_BONDANNOTATIONS>
12  11  3
13  14  8
13  15  8
14  17  8
15  18  8
17  22  8
18  22  8
19  20  8
19  21  8
19  23  8
2  20  8
2  24  8
23  24  8
6  16  8
6  21  8
7  16  8
7  20  8

$$$$

