17395971
  -OEChem-06241222533D

 49 53  0     0  0  0  0  0  0999 V2000
   -3.9294   -0.9457    2.0618 O   0  0  0  0  0  0  0  0  0  0  0  0
   -3.9733   -3.1934    2.4564 O   0  0  0  0  0  0  0  0  0  0  0  0
    3.6093    2.0869    1.4708 O   0  0  0  0  0  0  0  0  0  0  0  0
    6.0870    0.8704    1.1440 O   0  0  0  0  0  0  0  0  0  0  0  0
   -0.4344   -1.9556   -1.4515 N   0  0  0  0  0  0  0  0  0  0  0  0
    0.2659   -1.0117   -0.8068 N   0  0  0  0  0  0  0  0  0  0  0  0
    0.2722   -2.9863   -1.9357 N   0  0  0  0  0  0  0  0  0  0  0  0
    1.5270   -2.7194   -1.5948 N   0  0  0  0  0  0  0  0  0  0  0  0
   -2.8164   -0.0430    0.0399 C   0  0  0  0  0  0  0  0  0  0  0  0
   -2.5551   -1.4631   -0.3399 C   0  0  0  0  0  0  0  0  0  0  0  0
   -2.4376    1.1534   -0.6808 C   0  0  0  0  0  0  0  0  0  0  0  0
   -3.5250    0.1329    1.2445 C   0  0  0  0  0  0  0  0  0  0  0  0
   -1.8786   -1.8670   -1.6163 C   0  0  0  0  0  0  0  0  0  0  0  0
   -2.8243    2.4245   -0.1480 C   0  0  0  0  0  0  0  0  0  0  0  0
   -3.8875    1.3782    1.7482 C   0  0  0  0  0  0  0  0  0  0  0  0
   -3.5405    2.5162    1.0472 C   0  0  0  0  0  0  0  0  0  0  0  0
   -2.9506   -2.4591    0.4704 C   0  0  0  0  0  0  0  0  0  0  0  0
   -1.6963    1.2243   -1.8933 C   0  0  0  0  0  0  0  0  0  0  0  0
   -2.4980    3.6267   -0.7995 C   0  0  0  0  0  0  0  0  0  0  0  0
   -3.6508   -2.2542    1.7389 C   0  0  0  0  0  0  0  0  0  0  0  0
   -1.3757    2.4293   -2.5321 C   0  0  0  0  0  0  0  0  0  0  0  0
   -1.7793    3.6323   -1.9863 C   0  0  0  0  0  0  0  0  0  0  0  0
    1.4894   -1.5342   -0.9222 C   0  0  0  0  0  0  0  0  0  0  0  0
    2.6673   -0.9146   -0.3910 C   0  0  0  0  0  0  0  0  0  0  0  0
    2.5702    0.2993    0.2892 C   0  0  0  0  0  0  0  0  0  0  0  0
    3.9106   -1.5254   -0.5541 C   0  0  0  0  0  0  0  0  0  0  0  0
    3.7166    0.9024    0.8064 C   0  0  0  0  0  0  0  0  0  0  0  0
    4.9601    0.2918    0.6433 C   0  0  0  0  0  0  0  0  0  0  0  0
    5.0570   -0.9221   -0.0368 C   0  0  0  0  0  0  0  0  0  0  0  0
    2.3025    2.6448    1.5939 C   0  0  0  0  0  0  0  0  0  0  0  0
    7.3178    0.1811    0.9340 C   0  0  0  0  0  0  0  0  0  0  0  0
   -2.1433   -1.2926   -2.5016 H   0  0  0  0  0  0  0  0  0  0  0  0
   -2.1977   -2.8850   -1.8878 H   0  0  0  0  0  0  0  0  0  0  0  0
   -4.4371    1.4633    2.6812 H   0  0  0  0  0  0  0  0  0  0  0  0
   -3.8327    3.4832    1.4526 H   0  0  0  0  0  0  0  0  0  0  0  0
   -2.7653   -3.4980    0.2102 H   0  0  0  0  0  0  0  0  0  0  0  0
   -1.2994    0.3651   -2.4037 H   0  0  0  0  0  0  0  0  0  0  0  0
   -2.8028    4.5847   -0.3807 H   0  0  0  0  0  0  0  0  0  0  0  0
   -0.8028    2.4157   -3.4551 H   0  0  0  0  0  0  0  0  0  0  0  0
   -1.5333    4.5694   -2.4752 H   0  0  0  0  0  0  0  0  0  0  0  0
    1.5875    0.7450    0.3967 H   0  0  0  0  0  0  0  0  0  0  0  0
    4.0168   -2.4713   -1.0795 H   0  0  0  0  0  0  0  0  0  0  0  0
    5.9882   -1.4533   -0.2010 H   0  0  0  0  0  0  0  0  0  0  0  0
    2.4050    3.5841    2.1476 H   0  0  0  0  0  0  0  0  0  0  0  0
    1.6414    2.0010    2.1841 H   0  0  0  0  0  0  0  0  0  0  0  0
    1.8770    2.8991    0.6170 H   0  0  0  0  0  0  0  0  0  0  0  0
    8.1070    0.7827    1.3968 H   0  0  0  0  0  0  0  0  0  0  0  0
    7.5607    0.1041   -0.1313 H   0  0  0  0  0  0  0  0  0  0  0  0
    7.3257   -0.7928    1.4352 H   0  0  0  0  0  0  0  0  0  0  0  0
  1 12  1  0  0  0  0
  1 20  1  0  0  0  0
  2 20  2  0  0  0  0
  3 27  1  0  0  0  0
  3 30  1  0  0  0  0
  4 28  1  0  0  0  0
  4 31  1  0  0  0  0
  5  6  1  0  0  0  0
  5  7  1  0  0  0  0
  5 13  1  0  0  0  0
  6 23  2  0  0  0  0
  7  8  2  0  0  0  0
  8 23  1  0  0  0  0
  9 10  1  0  0  0  0
  9 11  1  0  0  0  0
  9 12  2  0  0  0  0
 10 13  1  0  0  0  0
 10 17  2  0  0  0  0
 11 14  1  0  0  0  0
 11 18  2  0  0  0  0
 12 15  1  0  0  0  0
 13 32  1  0  0  0  0
 13 33  1  0  0  0  0
 14 16  1  0  0  0  0
 14 19  2  0  0  0  0
 15 16  2  0  0  0  0
 15 34  1  0  0  0  0
 16 35  1  0  0  0  0
 17 20  1  0  0  0  0
 17 36  1  0  0  0  0
 18 21  1  0  0  0  0
 18 37  1  0  0  0  0
 19 22  1  0  0  0  0
 19 38  1  0  0  0  0
 21 22  2  0  0  0  0
 21 39  1  0  0  0  0
 22 40  1  0  0  0  0
 23 24  1  0  0  0  0
 24 25  2  0  0  0  0
 24 26  1  0  0  0  0
 25 27  1  0  0  0  0
 25 41  1  0  0  0  0
 26 29  2  0  0  0  0
 26 42  1  0  0  0  0
 27 28  2  0  0  0  0
 28 29  1  0  0  0  0
 29 43  1  0  0  0  0
 30 44  1  0  0  0  0
 30 45  1  0  0  0  0
 30 46  1  0  0  0  0
 31 47  1  0  0  0  0
 31 48  1  0  0  0  0
 31 49  1  0  0  0  0
M  END
> <PUBCHEM_COMPOUND_CID>
17395971

> <PUBCHEM_CONFORMER_RMSD>
0.8

> <PUBCHEM_CONFORMER_DIVERSEORDER>
1
54
28
51
13
4
33
17
38
20
24
47
56
21
49
32
52
6
5
57
50
22
45
9
29
15
3
31
16
2
55
10
23
37
18
53
42
7
11
41
27
46
19
14
39
44
34
43
26
12
48
36
8
40
25
35
30

> <PUBCHEM_MMFF94_PARTIAL_CHARGES>
39
1 -0.23
10 -0.17
12 0.08
13 0.39
15 -0.15
16 -0.15
17 -0.14
18 -0.15
19 -0.15
2 -0.57
20 0.71
21 -0.15
22 -0.15
23 0.46
24 0.05
25 -0.15
26 -0.15
27 0.08
28 0.08
29 -0.15
3 -0.36
30 0.28
31 0.28
34 0.15
35 0.15
36 0.15
37 0.15
38 0.15
39 0.15
4 -0.36
40 0.15
41 0.15
42 0.15
43 0.15
5 0.58
6 -0.71
7 -0.42
8 -0.23
9 0.03

> <PUBCHEM_EFFECTIVE_ROTOR_COUNT>
5

> <PUBCHEM_PHARMACOPHORE_FEATURES>
9
1 2 acceptor
1 3 acceptor
1 4 acceptor
3 6 8 23 cation
5 5 6 7 8 23 rings
6 1 9 10 12 17 20 rings
6 11 14 18 19 21 22 rings
6 24 25 26 27 28 29 rings
6 9 11 12 14 15 16 rings

> <PUBCHEM_HEAVY_ATOM_COUNT>
31

> <PUBCHEM_ATOM_DEF_STEREO_COUNT>
0

> <PUBCHEM_ATOM_UDEF_STEREO_COUNT>
0

> <PUBCHEM_BOND_DEF_STEREO_COUNT>
0

> <PUBCHEM_BOND_UDEF_STEREO_COUNT>
0

> <PUBCHEM_ISOTOPIC_ATOM_COUNT>
0

> <PUBCHEM_COMPONENT_COUNT>
1

> <PUBCHEM_CACTVS_TAUTO_COUNT>
1

> <PUBCHEM_CONFORMER_ID>
0109710300000001

> <PUBCHEM_MMFF94_ENERGY>
121.1485

> <PUBCHEM_FEATURE_SELFOVERLAP>
45.722

> <PUBCHEM_SHAPE_FINGERPRINT>
10369192 42 17677041348960107540
10930396 42 18059866051670525537
11273773 118 18341054095096675260
11370993 144 18261949777341993514
11595378 159 17846499261573801618
12035758 1 18058148666701583601
12422481 6 18339346518187418681
12596602 18 16415195638220548124
13402501 40 18335986483699378317
13583140 156 18272385190962522442
14279260 333 16733808922689096910
14856354 85 17917423182468871058
14932701 244 14853892368983226750
14950920 106 17917435268210995202
150020 26 18335978778986576118
15021287 119 17988656186062505932
15119646 57 14779829278679212346
15840311 113 17607219230214162593
17974551 9 16983776426499810051
18393751 57 18262231106317079851
19309040 13 15213560283402784570
21033648 29 17913770793239705725
21033650 10 5833982854572875110
21344244 78 17904444504454763827
22122407 14 17024859597120411577
22956985 138 16908330790539512283
25019877 29 16879056439679565639
3187 122 18271522005715143351
3459 110 18408040688923207130
35225 105 17130442374367782053
469060 322 17976558112506060191
4918855 1 18196081154639149156
497634 4 16950573133756280567
5081480 168 16155642818770558748
508706 21 18341619256088114732
7288768 16 18192990654627528529
9981440 41 18120400845073846855
9982175 41 17489033785157112996

> <PUBCHEM_SHAPE_MULTIPOLES>
594.56
11.76
4.32
2.3
21.28
0.91
-0.15
1.12
7.19
-4.65
-0.85
-1.89
-0.02
3.44

> <PUBCHEM_SHAPE_SELFOVERLAP>
1326.64

> <PUBCHEM_SHAPE_VOLUME>
315.8

> <PUBCHEM_COORDINATE_TYPE>
2
5
10

$$$$

