9281
  -OEChem-06261203342D

 88 93  0     0  0  0  0  0  0999 V2000
    2.5000    7.8868    0.0000 Cl  0  5  0  0  0  0  0  0  0  0  0  0
    0.0000    7.8868    0.0000 Cl  0  5  0  0  0  0  0  0  0  0  0  0
    8.6243   10.6368    0.0000 O   0  0  0  0  0  0  0  0  0  0  0  0
   12.0884    5.6368    0.0000 O   0  0  0  0  0  0  0  0  0  0  0  0
   15.7128   11.6577    0.0000 O   0  5  0  0  0  0  0  0  0  0  0  0
    5.0000    4.6160    0.0000 O   0  5  0  0  0  0  0  0  0  0  0  0
   15.1775   10.0104    0.0000 O   0  0  0  0  0  0  0  0  0  0  0  0
    5.5352    6.2632    0.0000 O   0  0  0  0  0  0  0  0  0  0  0  0
   10.3564   11.6368    0.0000 N   0  3  0  0  0  0  0  0  0  0  0  0
   10.3564    4.6368    0.0000 N   0  3  0  0  0  0  0  0  0  0  0  0
   11.1654   12.2246    0.0000 N   0  0  0  0  0  0  0  0  0  0  0  0
    9.5474    4.0490    0.0000 N   0  0  0  0  0  0  0  0  0  0  0  0
    9.5474   12.2246    0.0000 N   0  0  0  0  0  0  0  0  0  0  0  0
   11.1654    4.0490    0.0000 N   0  0  0  0  0  0  0  0  0  0  0  0
   10.8564   13.1757    0.0000 N   0  0  0  0  0  0  0  0  0  0  0  0
    9.8564    3.0980    0.0000 N   0  0  0  0  0  0  0  0  0  0  0  0
    5.7431    5.2851    0.0000 N   0  3  0  0  0  0  0  0  0  0  0  0
   14.9696   10.9885    0.0000 N   0  3  0  0  0  0  0  0  0  0  0  0
   10.3564    7.6368    0.0000 C   0  0  0  0  0  0  0  0  0  0  0  0
   10.3564    8.6368    0.0000 C   0  0  0  0  0  0  0  0  0  0  0  0
   10.3564    5.6368    0.0000 C   0  0  0  0  0  0  0  0  0  0  0  0
   10.3564   10.6368    0.0000 C   0  0  0  0  0  0  0  0  0  0  0  0
    9.4904   10.1368    0.0000 C   0  0  0  0  0  0  0  0  0  0  0  0
   11.2224    6.1368    0.0000 C   0  0  0  0  0  0  0  0  0  0  0  0
   11.2224    7.1368    0.0000 C   0  0  0  0  0  0  0  0  0  0  0  0
    9.4904    9.1368    0.0000 C   0  0  0  0  0  0  0  0  0  0  0  0
   11.2224    9.1368    0.0000 C   0  0  0  0  0  0  0  0  0  0  0  0
    9.4904    7.1368    0.0000 C   0  0  0  0  0  0  0  0  0  0  0  0
   11.2224   10.1368    0.0000 C   0  0  0  0  0  0  0  0  0  0  0  0
    9.4904    6.1368    0.0000 C   0  0  0  0  0  0  0  0  0  0  0  0
    8.5963    4.3581    0.0000 C   0  0  0  0  0  0  0  0  0  0  0  0
   12.1165   11.9156    0.0000 C   0  0  0  0  0  0  0  0  0  0  0  0
    9.8564   13.1757    0.0000 C   0  0  0  0  0  0  0  0  0  0  0  0
   10.8564    3.0980    0.0000 C   0  0  0  0  0  0  0  0  0  0  0  0
   11.4442    2.2890    0.0000 C   0  0  0  0  0  0  0  0  0  0  0  0
    9.2686   13.9847    0.0000 C   0  0  0  0  0  0  0  0  0  0  0  0
   12.8596   12.5847    0.0000 C   0  0  0  0  0  0  0  0  0  0  0  0
    7.8532    3.6889    0.0000 C   0  0  0  0  0  0  0  0  0  0  0  0
   12.3244   10.9374    0.0000 C   0  0  0  0  0  0  0  0  0  0  0  0
    8.3884    5.3362    0.0000 C   0  0  0  0  0  0  0  0  0  0  0  0
    6.9021    3.9979    0.0000 C   0  0  0  0  0  0  0  0  0  0  0  0
   13.8107   12.2757    0.0000 C   0  0  0  0  0  0  0  0  0  0  0  0
    7.4374    5.6452    0.0000 C   0  0  0  0  0  0  0  0  0  0  0  0
   13.2754   10.6284    0.0000 C   0  0  0  0  0  0  0  0  0  0  0  0
    6.6942    4.9761    0.0000 C   0  0  0  0  0  0  0  0  0  0  0  0
   14.0186   11.2976    0.0000 C   0  0  0  0  0  0  0  0  0  0  0  0
    8.2741   13.8801    0.0000 C   0  0  0  0  0  0  0  0  0  0  0  0
   12.4387    2.3935    0.0000 C   0  0  0  0  0  0  0  0  0  0  0  0
    9.6753   14.8982    0.0000 C   0  0  0  0  0  0  0  0  0  0  0  0
   11.0374    1.3754    0.0000 C   0  0  0  0  0  0  0  0  0  0  0  0
    7.7583   10.1368    0.0000 C   0  0  0  0  0  0  0  0  0  0  0  0
   12.9545    6.1368    0.0000 C   0  0  0  0  0  0  0  0  0  0  0  0
   13.0265    1.5845    0.0000 C   0  0  0  0  0  0  0  0  0  0  0  0
    7.6863   14.6892    0.0000 C   0  0  0  0  0  0  0  0  0  0  0  0
   11.6252    0.5664    0.0000 C   0  0  0  0  0  0  0  0  0  0  0  0
    9.0876   15.7072    0.0000 C   0  0  0  0  0  0  0  0  0  0  0  0
    8.0930   15.6027    0.0000 C   0  0  0  0  0  0  0  0  0  0  0  0
   12.6197    0.6709    0.0000 C   0  0  0  0  0  0  0  0  0  0  0  0
    8.9534    8.8268    0.0000 H   0  0  0  0  0  0  0  0  0  0  0  0
   11.7593    7.4468    0.0000 H   0  0  0  0  0  0  0  0  0  0  0  0
   11.7593    8.8268    0.0000 H   0  0  0  0  0  0  0  0  0  0  0  0
    8.9534    7.4468    0.0000 H   0  0  0  0  0  0  0  0  0  0  0  0
   11.7593   10.4468    0.0000 H   0  0  0  0  0  0  0  0  0  0  0  0
    8.9534    5.8268    0.0000 H   0  0  0  0  0  0  0  0  0  0  0  0
    7.9821    3.0825    0.0000 H   0  0  0  0  0  0  0  0  0  0  0  0
   12.7307   13.1912    0.0000 H   0  0  0  0  0  0  0  0  0  0  0  0
    8.8492    5.7511    0.0000 H   0  0  0  0  0  0  0  0  0  0  0  0
   11.8636   10.5226    0.0000 H   0  0  0  0  0  0  0  0  0  0  0  0
    6.4414    3.5831    0.0000 H   0  0  0  0  0  0  0  0  0  0  0  0
   14.2714   12.6906    0.0000 H   0  0  0  0  0  0  0  0  0  0  0  0
    7.3084    6.2517    0.0000 H   0  0  0  0  0  0  0  0  0  0  0  0
   13.4043   10.0220    0.0000 H   0  0  0  0  0  0  0  0  0  0  0  0
   12.6909    2.9599    0.0000 H   0  0  0  0  0  0  0  0  0  0  0  0
    8.0219   13.3138    0.0000 H   0  0  0  0  0  0  0  0  0  0  0  0
   10.4208    1.3106    0.0000 H   0  0  0  0  0  0  0  0  0  0  0  0
   10.2919   14.9630    0.0000 H   0  0  0  0  0  0  0  0  0  0  0  0
   13.2645    5.5999    0.0000 H   0  0  0  0  0  0  0  0  0  0  0  0
   13.4914    6.4468    0.0000 H   0  0  0  0  0  0  0  0  0  0  0  0
   12.6445    6.6738    0.0000 H   0  0  0  0  0  0  0  0  0  0  0  0
    7.4483   10.6738    0.0000 H   0  0  0  0  0  0  0  0  0  0  0  0
    7.2214    9.8268    0.0000 H   0  0  0  0  0  0  0  0  0  0  0  0
    8.0683    9.5999    0.0000 H   0  0  0  0  0  0  0  0  0  0  0  0
    7.0697   14.6244    0.0000 H   0  0  0  0  0  0  0  0  0  0  0  0
   13.6431    1.6493    0.0000 H   0  0  0  0  0  0  0  0  0  0  0  0
    9.3397   16.2736    0.0000 H   0  0  0  0  0  0  0  0  0  0  0  0
   11.3730    0.0000    0.0000 H   0  0  0  0  0  0  0  0  0  0  0  0
    7.7286   16.1043    0.0000 H   0  0  0  0  0  0  0  0  0  0  0  0
   12.9842    0.1693    0.0000 H   0  0  0  0  0  0  0  0  0  0  0  0
  3 23  1  0  0  0  0
  3 51  1  0  0  0  0
  4 24  1  0  0  0  0
  4 52  1  0  0  0  0
  5 18  1  0  0  0  0
  6 17  1  0  0  0  0
  7 18  2  0  0  0  0
  8 17  2  0  0  0  0
  9 11  1  0  0  0  0
  9 13  2  0  0  0  0
  9 22  1  0  0  0  0
 10 12  1  0  0  0  0
 10 14  2  0  0  0  0
 10 21  1  0  0  0  0
 11 15  1  0  0  0  0
 11 32  1  0  0  0  0
 12 16  1  0  0  0  0
 12 31  1  0  0  0  0
 13 33  1  0  0  0  0
 14 34  1  0  0  0  0
 15 33  2  0  0  0  0
 16 34  2  0  0  0  0
 17 45  1  0  0  0  0
 18 46  1  0  0  0  0
 19 20  1  0  0  0  0
 19 25  2  0  0  0  0
 19 28  1  0  0  0  0
 20 26  2  0  0  0  0
 20 27  1  0  0  0  0
 21 24  2  0  0  0  0
 21 30  1  0  0  0  0
 22 23  2  0  0  0  0
 22 29  1  0  0  0  0
 23 26  1  0  0  0  0
 24 25  1  0  0  0  0
 25 60  1  0  0  0  0
 26 59  1  0  0  0  0
 27 29  2  0  0  0  0
 27 61  1  0  0  0  0
 28 30  2  0  0  0  0
 28 62  1  0  0  0  0
 29 63  1  0  0  0  0
 30 64  1  0  0  0  0
 31 38  2  0  0  0  0
 31 40  1  0  0  0  0
 32 37  2  0  0  0  0
 32 39  1  0  0  0  0
 33 36  1  0  0  0  0
 34 35  1  0  0  0  0
 35 48  2  0  0  0  0
 35 50  1  0  0  0  0
 36 47  2  0  0  0  0
 36 49  1  0  0  0  0
 37 42  1  0  0  0  0
 37 66  1  0  0  0  0
 38 41  1  0  0  0  0
 38 65  1  0  0  0  0
 39 44  2  0  0  0  0
 39 68  1  0  0  0  0
 40 43  2  0  0  0  0
 40 67  1  0  0  0  0
 41 45  2  0  0  0  0
 41 69  1  0  0  0  0
 42 46  2  0  0  0  0
 42 70  1  0  0  0  0
 43 45  1  0  0  0  0
 43 71  1  0  0  0  0
 44 46  1  0  0  0  0
 44 72  1  0  0  0  0
 47 54  1  0  0  0  0
 47 74  1  0  0  0  0
 48 53  1  0  0  0  0
 48 73  1  0  0  0  0
 49 56  2  0  0  0  0
 49 76  1  0  0  0  0
 50 55  2  0  0  0  0
 50 75  1  0  0  0  0
 51 80  1  0  0  0  0
 51 81  1  0  0  0  0
 51 82  1  0  0  0  0
 52 77  1  0  0  0  0
 52 78  1  0  0  0  0
 52 79  1  0  0  0  0
 53 58  2  0  0  0  0
 53 84  1  0  0  0  0
 54 57  2  0  0  0  0
 54 83  1  0  0  0  0
 55 58  1  0  0  0  0
 55 86  1  0  0  0  0
 56 57  1  0  0  0  0
 56 85  1  0  0  0  0
 57 87  1  0  0  0  0
 58 88  1  0  0  0  0
M  CHG  8   1  -1   2  -1   5  -1   6  -1   9   1  10   1  17   1  18   1
M  END
> <PUBCHEM_COMPOUND_CID>
9281

> <PUBCHEM_COMPOUND_CANONICALIZED>
1

> <PUBCHEM_CACTVS_COMPLEXITY>
1180

> <PUBCHEM_CACTVS_HBOND_ACCEPTOR>
12

> <PUBCHEM_CACTVS_HBOND_DONOR>
0

> <PUBCHEM_CACTVS_ROTATABLE_BOND>
9

> <PUBCHEM_CACTVS_SUBSKEYS>
AAADceB/+AAGAAAAAAAAAAAAAAAAAWLAAAAwYMGDAAAAAAAB9AAAHgAMAAAADAyBmwIz1oQQRACjAiZiYwCSDAIgIgA8iCAnbJoOJqKEsZuBMCBkyBEI6AeQwPAOiACBAAAAEAAQAQIAAAAgAAAAAAAAAA==

> <PUBCHEM_IUPAC_OPENEYE_NAME>
2-[2-methoxy-4-[3-methoxy-4-[3-(4-nitrophenyl)-5-phenyl-tetrazol-2-ium-2-yl]phenyl]phenyl]-3-(4-nitrophenyl)-5-phenyl-tetrazol-2-ium dichloride

> <PUBCHEM_IUPAC_CAS_NAME>
2-[2-methoxy-4-[3-methoxy-4-[3-(4-nitrophenyl)-5-phenyl-2-tetrazol-2-iumyl]phenyl]phenyl]-3-(4-nitrophenyl)-5-phenyltetrazol-2-ium dichloride

> <PUBCHEM_IUPAC_NAME>
2-[2-methoxy-4-[3-methoxy-4-[3-(4-nitrophenyl)-5-phenyltetrazol-2-ium-2-yl]phenyl]phenyl]-3-(4-nitrophenyl)-5-phenyltetrazol-2-ium dichloride

> <PUBCHEM_IUPAC_SYSTEMATIC_NAME>
2-[2-methoxy-4-[3-methoxy-4-[3-(4-nitrophenyl)-5-phenyl-1,2,3,4-tetrazol-2-ium-2-yl]phenyl]phenyl]-3-(4-nitrophenyl)-5-phenyl-1,2,3,4-tetrazol-2-ium dichloride

> <PUBCHEM_IUPAC_TRADITIONAL_NAME>
2-[2-methoxy-4-[3-methoxy-4-[3-(4-nitrophenyl)-5-phenyl-tetrazol-2-ium-2-yl]phenyl]phenyl]-3-(4-nitrophenyl)-5-phenyl-tetrazol-2-ium dichloride

> <PUBCHEM_IUPAC_INCHI>
InChI=1S/C40H30N10O6.2ClH/c1-55-37-25-29(13-23-35(37)47-43-39(27-9-5-3-6-10-27)41-45(47)31-15-19-33(20-16-31)49(51)52)30-14-24-36(38(26-30)56-2)48-44-40(28-11-7-4-8-12-28)42-46(48)32-17-21-34(22-18-32)50(53)54;;/h3-26H,1-2H3;2*1H/q+2;;/p-2

> <PUBCHEM_IUPAC_INCHIKEY>
FSVCQIDHPKZJSO-UHFFFAOYSA-L

> <PUBCHEM_EXACT_MASS>
816.172684

> <PUBCHEM_MOLECULAR_FORMULA>
C40H30Cl2N10O6

> <PUBCHEM_MOLECULAR_WEIGHT>
817.6356

> <PUBCHEM_OPENEYE_CAN_SMILES>
COC1=C(C=CC(=C1)C2=CC(=C(C=C2)[N+]3=NC(=NN3C4=CC=C(C=C4)[N+](=O)[O-])C5=CC=CC=C5)OC)[N+]6=NC(=NN6C7=CC=C(C=C7)[N+](=O)[O-])C8=CC=CC=C8.[Cl-].[Cl-]

> <PUBCHEM_OPENEYE_ISO_SMILES>
COC1=C(C=CC(=C1)C2=CC(=C(C=C2)[N+]3=NC(=NN3C4=CC=C(C=C4)[N+](=O)[O-])C5=CC=CC=C5)OC)[N+]6=NC(=NN6C7=CC=C(C=C7)[N+](=O)[O-])C8=CC=CC=C8.[Cl-].[Cl-]

> <PUBCHEM_CACTVS_TPSA>
179

> <PUBCHEM_MONOISOTOPIC_WEIGHT>
816.172684

> <PUBCHEM_TOTAL_CHARGE>
0

> <PUBCHEM_HEAVY_ATOM_COUNT>
58

> <PUBCHEM_ATOM_DEF_STEREO_COUNT>
0

> <PUBCHEM_ATOM_UDEF_STEREO_COUNT>
0

> <PUBCHEM_BOND_DEF_STEREO_COUNT>
0

> <PUBCHEM_BOND_UDEF_STEREO_COUNT>
0

> <PUBCHEM_ISOTOPIC_ATOM_COUNT>
0

> <PUBCHEM_COMPONENT_COUNT>
3

> <PUBCHEM_CACTVS_TAUTO_COUNT>
1

> <PUBCHEM_COORDINATE_TYPE>
1
5
255

> <PUBCHEM_BONDANNOTATIONS>
10  12  8
10  14  8
11  15  8
12  16  8
13  33  8
14  34  8
15  33  8
16  34  8
19  25  8
19  28  8
20  26  8
20  27  8
21  24  8
21  30  8
22  23  8
22  29  8
23  26  8
24  25  8
27  29  8
28  30  8
31  38  8
31  40  8
32  37  8
32  39  8
35  48  8
35  50  8
36  47  8
36  49  8
37  42  8
38  41  8
39  44  8
40  43  8
41  45  8
42  46  8
43  45  8
44  46  8
47  54  8
48  53  8
49  56  8
50  55  8
53  58  8
54  57  8
55  58  8
56  57  8
9  11  8
9  13  8

$$$$

