13680
  -OEChem-06241222393D

 25 26  0     0  0  0  0  0  0999 V2000
    4.4086    0.3353    0.3462 O   0  0  0  0  0  0  0  0  0  0  0  0
    0.1313    0.8947   -0.1204 N   0  0  0  0  0  0  0  0  0  0  0  0
    0.0734   -1.3166    0.0957 N   0  0  0  0  0  0  0  0  0  0  0  0
    3.0412    0.6080    0.4180 N   0  0  0  0  0  0  0  0  0  0  0  0
   -1.1991    0.5680   -0.0561 C   0  0  0  0  0  0  0  0  0  0  0  0
    0.8508   -0.2638   -0.0255 C   0  0  0  0  0  0  0  0  0  0  0  0
   -1.2088   -0.8176    0.0786 C   0  0  0  0  0  0  0  0  0  0  0  0
   -2.3592    1.3417   -0.1026 C   0  0  0  0  0  0  0  0  0  0  0  0
    0.6749    2.2263   -0.2628 C   0  0  0  0  0  0  0  0  0  0  0  0
   -2.4402   -1.4878    0.1738 C   0  0  0  0  0  0  0  0  0  0  0  0
    2.2739   -0.3720   -0.0511 C   0  0  0  0  0  0  0  0  0  0  0  0
   -3.5759    0.6584   -0.0063 C   0  0  0  0  0  0  0  0  0  0  0  0
   -3.6178   -0.7311    0.1294 C   0  0  0  0  0  0  0  0  0  0  0  0
    2.9468   -1.6436   -0.6169 C   0  0  0  0  0  0  0  0  0  0  0  0
   -2.3352    2.4203   -0.2054 H   0  0  0  0  0  0  0  0  0  0  0  0
    1.4460    2.2157   -1.0374 H   0  0  0  0  0  0  0  0  0  0  0  0
   -0.1099    2.9216   -0.5676 H   0  0  0  0  0  0  0  0  0  0  0  0
    1.0858    2.5364    0.7011 H   0  0  0  0  0  0  0  0  0  0  0  0
   -2.4835   -2.5670    0.2795 H   0  0  0  0  0  0  0  0  0  0  0  0
   -4.5062    1.2203   -0.0372 H   0  0  0  0  0  0  0  0  0  0  0  0
   -4.5787   -1.2340    0.2020 H   0  0  0  0  0  0  0  0  0  0  0  0
    3.6599   -1.3654   -1.3983 H   0  0  0  0  0  0  0  0  0  0  0  0
    3.4706   -2.1630    0.1906 H   0  0  0  0  0  0  0  0  0  0  0  0
    2.2040   -2.3178   -1.0508 H   0  0  0  0  0  0  0  0  0  0  0  0
    4.7893    1.1461    0.7236 H   0  0  0  0  0  0  0  0  0  0  0  0
  1  4  1  0  0  0  0
  1 25  1  0  0  0  0
  2  5  1  0  0  0  0
  2  6  1  0  0  0  0
  2  9  1  0  0  0  0
  3  6  2  0  0  0  0
  3  7  1  0  0  0  0
  4 11  2  0  0  0  0
  5  7  1  0  0  0  0
  5  8  2  0  0  0  0
  6 11  1  0  0  0  0
  7 10  2  0  0  0  0
  8 12  1  0  0  0  0
  8 15  1  0  0  0  0
  9 16  1  0  0  0  0
  9 17  1  0  0  0  0
  9 18  1  0  0  0  0
 10 13  1  0  0  0  0
 10 19  1  0  0  0  0
 11 14  1  0  0  0  0
 12 13  2  0  0  0  0
 12 20  1  0  0  0  0
 13 21  1  0  0  0  0
 14 22  1  0  0  0  0
 14 23  1  0  0  0  0
 14 24  1  0  0  0  0
M  END
> <PUBCHEM_COMPOUND_CID>
13680

> <PUBCHEM_CONFORMER_RMSD>
0.4

> <PUBCHEM_CONFORMER_DIVERSEORDER>
1
2
3

> <PUBCHEM_MMFF94_PARTIAL_CHARGES>
19
1 -0.34
10 -0.15
11 0.47
12 -0.15
13 -0.15
14 0.06
15 0.15
19 0.15
2 0.05
20 0.15
21 0.15
25 0.4
3 -0.57
4 -0.51
5 -0.15
6 0.1
7 0.23
8 -0.15
9 0.26

> <PUBCHEM_EFFECTIVE_ROTOR_COUNT>
1

> <PUBCHEM_PHARMACOPHORE_FEATURES>
5
1 1 anion
1 4 acceptor
3 2 3 6 cation
5 2 3 5 6 7 rings
6 5 7 8 10 12 13 rings

> <PUBCHEM_HEAVY_ATOM_COUNT>
14

> <PUBCHEM_ATOM_DEF_STEREO_COUNT>
0

> <PUBCHEM_ATOM_UDEF_STEREO_COUNT>
0

> <PUBCHEM_BOND_DEF_STEREO_COUNT>
0

> <PUBCHEM_BOND_UDEF_STEREO_COUNT>
1

> <PUBCHEM_ISOTOPIC_ATOM_COUNT>
0

> <PUBCHEM_COMPONENT_COUNT>
1

> <PUBCHEM_CACTVS_TAUTO_COUNT>
2

> <PUBCHEM_CONFORMER_ID>
0000357000000001

> <PUBCHEM_MMFF94_ENERGY>
33.7393

> <PUBCHEM_FEATURE_SELFOVERLAP>
25.478

> <PUBCHEM_SHAPE_FINGERPRINT>
10608611 8 18408608088489328624
10967382 1 18411136918078101023
11132069 177 18413109480508634285
11806522 49 18338802204397813951
12032990 46 18410848897508083663
12251169 10 18410568462356284585
12932764 1 17632299033232070271
13214271 11 18336273366266170500
13296908 3 18409727391347516646
14144814 61 18412262856692416475
14325111 11 18410012164779709923
15219456 202 18261109711914625286
15536298 74 18334012830542012414
16945 1 18413101758537198723
18175812 5 18187927321697231286
18186145 218 18340766064960621134
18522853 276 18410011027019727401
19026448 5 16370727062639466111
193761 8 17835518215587855823
200 152 17603591828424014423
20201158 50 18410011026613551914
20279233 1 18408038520022978694
20510252 161 18261955249299387457
20645477 70 17968097593916564390
21267235 1 18411691076086001739
21501502 16 18196929972697702093
21501925 9 18339646633464430195
23402539 116 18336840739761736598
23402655 69 18265350567714378413
23463225 33 18341895220616288686
23552423 10 18200592471836602311
23559900 14 18337673139495771558
2748010 2 18338233872507446991
5104073 3 18410292544555669794
528886 8 18410862070125054515
53812653 166 18408609162178268928
6333449 129 18409452492165936319
69090 78 18259991474350849063
7364860 26 18192992617063630976
81228 2 18198611332056192296
8809292 202 18130501921233519723
9709674 26 18409725140821973070

> <PUBCHEM_SHAPE_MULTIPOLES>
267.3
6.44
1.83
0.65
2.36
0.35
-0.02
-0.66
0.39
0.02
-0.16
0.1
-0.03
0.38

> <PUBCHEM_SHAPE_SELFOVERLAP>
574.991

> <PUBCHEM_SHAPE_VOLUME>
150.8

> <PUBCHEM_COORDINATE_TYPE>
2
5
10

$$$$

