17396549
  -OEChem-06241222573D

 49 51  0     1  0  0  0  0  0999 V2000
    0.5908    0.3176   -0.0558 O   0  0  0  0  0  0  0  0  0  0  0  0
    2.1861   -1.1043    1.6822 O   0  0  0  0  0  0  0  0  0  0  0  0
   -0.2102   -1.3894   -1.3597 O   0  0  0  0  0  0  0  0  0  0  0  0
   -5.8615   -0.6374   -0.9747 O   0  0  0  0  0  0  0  0  0  0  0  0
   -6.1436    0.1390    1.1639 O   0  0  0  0  0  0  0  0  0  0  0  0
    3.3708   -1.9113   -0.1439 N   0  0  0  0  0  0  0  0  0  0  0  0
   -1.9839    0.9613    0.7347 N   0  0  0  0  0  0  0  0  0  0  0  0
    4.0464   -2.9710    0.5483 C   0  0  0  0  0  0  0  0  0  0  0  0
    5.3152   -2.7157    1.3077 C   0  0  0  0  0  0  0  0  0  0  0  0
    5.3468   -3.5236    0.0435 C   0  0  0  0  0  0  0  0  0  0  0  0
    2.4835   -1.0534    0.4905 C   0  0  0  0  0  0  0  0  0  0  0  0
    1.9156   -0.0028   -0.4536 C   0  0  2  0  0  0  0  0  0  0  0  0
    2.7458    1.2592   -0.4480 C   0  0  0  0  0  0  0  0  0  0  0  0
   -1.7502   -0.0748   -0.1313 C   0  0  0  0  0  0  0  0  0  0  0  0
   -0.4110   -0.4605   -0.5841 C   0  0  0  0  0  0  0  0  0  0  0  0
   -2.9659   -0.6335   -0.4587 C   0  0  0  0  0  0  0  0  0  0  0  0
    2.4525    2.2830    0.4531 C   0  0  0  0  0  0  0  0  0  0  0  0
    3.8060    1.4010   -1.3435 C   0  0  0  0  0  0  0  0  0  0  0  0
   -3.9657    0.0925    0.2348 C   0  0  0  0  0  0  0  0  0  0  0  0
   -3.3304    1.0728    0.9645 C   0  0  0  0  0  0  0  0  0  0  0  0
   -3.1882   -1.7794   -1.3657 C   0  0  0  0  0  0  0  0  0  0  0  0
    3.2190    3.4483    0.4585 C   0  0  0  0  0  0  0  0  0  0  0  0
    4.5725    2.5664   -1.3379 C   0  0  0  0  0  0  0  0  0  0  0  0
   -3.8622    2.1143    1.8650 C   0  0  0  0  0  0  0  0  0  0  0  0
   -5.3859   -0.1170    0.2122 C   0  0  0  0  0  0  0  0  0  0  0  0
    4.2790    3.5899   -0.4368 C   0  0  0  0  0  0  0  0  0  0  0  0
   -7.2713   -0.8717   -1.0654 C   0  0  0  0  0  0  0  0  0  0  0  0
    3.3544   -3.6915    0.9734 H   0  0  0  0  0  0  0  0  0  0  0  0
    5.7430   -1.7209    1.2796 H   0  0  0  0  0  0  0  0  0  0  0  0
    5.4555   -3.2387    2.2455 H   0  0  0  0  0  0  0  0  0  0  0  0
    5.7971   -3.0704   -0.8312 H   0  0  0  0  0  0  0  0  0  0  0  0
    5.5101   -4.5907    0.1306 H   0  0  0  0  0  0  0  0  0  0  0  0
    3.5635   -1.7997   -1.1355 H   0  0  0  0  0  0  0  0  0  0  0  0
    1.9081   -0.3873   -1.4822 H   0  0  0  0  0  0  0  0  0  0  0  0
    1.6407    2.1937    1.1698 H   0  0  0  0  0  0  0  0  0  0  0  0
    4.0463    0.6113   -2.0502 H   0  0  0  0  0  0  0  0  0  0  0  0
   -1.2703    1.5517    1.1404 H   0  0  0  0  0  0  0  0  0  0  0  0
   -3.3096   -1.4337   -2.3971 H   0  0  0  0  0  0  0  0  0  0  0  0
   -2.3618   -2.4947   -1.3370 H   0  0  0  0  0  0  0  0  0  0  0  0
   -4.0771   -2.3528   -1.0856 H   0  0  0  0  0  0  0  0  0  0  0  0
   -4.6796    2.6616    1.3845 H   0  0  0  0  0  0  0  0  0  0  0  0
   -3.0941    2.8444    2.1414 H   0  0  0  0  0  0  0  0  0  0  0  0
   -4.2442    1.6641    2.7869 H   0  0  0  0  0  0  0  0  0  0  0  0
    2.9927    4.2442    1.1620 H   0  0  0  0  0  0  0  0  0  0  0  0
    5.3983    2.6767   -2.0347 H   0  0  0  0  0  0  0  0  0  0  0  0
    4.8764    4.4969   -0.4319 H   0  0  0  0  0  0  0  0  0  0  0  0
   -7.5814   -1.5996   -0.3099 H   0  0  0  0  0  0  0  0  0  0  0  0
   -7.8180    0.0682   -0.9454 H   0  0  0  0  0  0  0  0  0  0  0  0
   -7.4851   -1.2799   -2.0566 H   0  0  0  0  0  0  0  0  0  0  0  0
  1 12  1  0  0  0  0
  1 15  1  0  0  0  0
  2 11  2  0  0  0  0
  3 15  2  0  0  0  0
  4 25  1  0  0  0  0
  4 27  1  0  0  0  0
  5 25  2  0  0  0  0
  6  8  1  0  0  0  0
  6 11  1  0  0  0  0
  6 33  1  0  0  0  0
  7 14  1  0  0  0  0
  7 20  1  0  0  0  0
  7 37  1  0  0  0  0
  8  9  1  0  0  0  0
  8 10  1  0  0  0  0
  8 28  1  0  0  0  0
  9 10  1  0  0  0  0
  9 29  1  0  0  0  0
  9 30  1  0  0  0  0
 10 31  1  0  0  0  0
 10 32  1  0  0  0  0
 11 12  1  0  0  0  0
 12 13  1  0  0  0  0
 12 34  1  0  0  0  0
 13 17  2  0  0  0  0
 13 18  1  0  0  0  0
 14 15  1  0  0  0  0
 14 16  2  0  0  0  0
 16 19  1  0  0  0  0
 16 21  1  0  0  0  0
 17 22  1  0  0  0  0
 17 35  1  0  0  0  0
 18 23  2  0  0  0  0
 18 36  1  0  0  0  0
 19 20  2  0  0  0  0
 19 25  1  0  0  0  0
 20 24  1  0  0  0  0
 21 38  1  0  0  0  0
 21 39  1  0  0  0  0
 21 40  1  0  0  0  0
 22 26  2  0  0  0  0
 22 44  1  0  0  0  0
 23 26  1  0  0  0  0
 23 45  1  0  0  0  0
 24 41  1  0  0  0  0
 24 42  1  0  0  0  0
 24 43  1  0  0  0  0
 26 46  1  0  0  0  0
 27 47  1  0  0  0  0
 27 48  1  0  0  0  0
 27 49  1  0  0  0  0
M  END
> <PUBCHEM_COMPOUND_CID>
17396549

> <PUBCHEM_CONFORMER_RMSD>
1

> <PUBCHEM_CONFORMER_DIVERSEORDER>
1
75
112
73
46
129
49
28
147
151
127
115
96
105
113
148
30
94
110
18
84
82
70
118
133
76
65
123
103
146
153
69
92
122
66
50
97
131
95
150
109
143
71
114
125
119
48
40
77
141
6
149
55
35
132
140
53
38
86
108
98
104
81
126
93
51
57
63
59
83
31
121
58
136
117
4
25
43
91
142
62
60
79
72
130
88
145
144
90
61
44
128
16
111
39
152
45
135
54
52
10
56
80
101
47
13
24
27
100
139
106
89
8
107
29
15
67
37
41
33
32
74
102
134
87
14
85
116
124
78
20
120
23
22
12
138
34
19
137
7
36
3
68
5
42
99
2
21
17
11
26
64
9

> <PUBCHEM_MMFF94_PARTIAL_CHARGES>
39
1 -0.43
10 -0.2
11 0.57
12 0.48
13 -0.14
14 -0.24
15 0.81
16 -0.18
17 -0.15
18 -0.15
19 -0.09
2 -0.57
20 -0.33
21 0.18
22 -0.15
23 -0.15
24 0.18
25 0.81
26 -0.15
27 0.28
28 0.1
29 0.1
3 -0.57
30 0.1
31 0.1
32 0.1
33 0.37
35 0.15
36 0.15
37 0.27
4 -0.43
44 0.15
45 0.15
46 0.15
5 -0.57
6 -0.58
7 0.03
8 0.05
9 -0.2

> <PUBCHEM_EFFECTIVE_ROTOR_COUNT>
9.6

> <PUBCHEM_PHARMACOPHORE_FEATURES>
8
1 2 acceptor
1 3 acceptor
1 5 acceptor
1 6 donor
1 7 cation
1 7 donor
5 7 14 16 19 20 rings
6 13 17 18 22 23 26 rings

> <PUBCHEM_HEAVY_ATOM_COUNT>
27

> <PUBCHEM_ATOM_DEF_STEREO_COUNT>
0

> <PUBCHEM_ATOM_UDEF_STEREO_COUNT>
1

> <PUBCHEM_BOND_DEF_STEREO_COUNT>
0

> <PUBCHEM_BOND_UDEF_STEREO_COUNT>
0

> <PUBCHEM_ISOTOPIC_ATOM_COUNT>
0

> <PUBCHEM_COMPONENT_COUNT>
1

> <PUBCHEM_CACTVS_TAUTO_COUNT>
6

> <PUBCHEM_CONFORMER_ID>
0109734500000001

> <PUBCHEM_MMFF94_ENERGY>
54.1419

> <PUBCHEM_FEATURE_SELFOVERLAP>
40.594

> <PUBCHEM_SHAPE_FINGERPRINT>
10411042 1 18196657517838433426
10554248 39 18335433387133566957
11475781 23 16127837218040296191
12107183 9 18048308139852399673
12166972 35 18188213203352657426
12236239 1 18336549403888416723
12403259 118 18042402598786048993
12403260 363 18261111919801940121
12616971 3 18334580161515115183
12730499 353 18270387288024248744
12788726 201 17749381547556283225
13009979 54 17969216914413063688
13533116 47 18412826880508993971
13590594 115 18126560357027162768
13955234 65 18342176644496367418
14528608 73 18114458951573452461
14739800 52 17822583698617916144
14955137 171 18266734878233317394
15238133 3 17385998533221816315
15250474 111 18260272927847858015
15842332 3 18114477651649920254
1813 80 18194680591478430510
18335252 98 18129095625009340691
18681886 176 17313095337918468404
21033648 29 17131838659798537141
21049683 271 18131059473072127870
21065198 48 18408036325679721409
21344244 78 18262815059192575776
21781055 127 16661466545811473851
21792934 111 18041570226082646241
22849341 161 18193543692043817762
23081809 10 18187363225768094451
23559900 14 18411990173450847291
249057 25 18186519938751140745
25147074 1 18260546731822352437
3004659 81 18040428906209307342
312423 11 18410007766907369753
3633792 109 18272662276798972775
4516262 110 18339929186552513260
474 4 18127123078867405908
5104073 3 18336252510269056601
5219985 9 18199186386055719794
5385378 56 18340486673861155240
5912855 24 18192434069895235239
6823239 73 15625931058743646254
9962374 69 18340217331529174415
9981440 41 17978800000078669504

> <PUBCHEM_SHAPE_MULTIPOLES>
516.34
15.46
4.02
1.4
18.16
0.48
-0.15
-4.01
0.52
-10.24
-0.45
0.48
0.11
-3.59

> <PUBCHEM_SHAPE_SELFOVERLAP>
1098.056

> <PUBCHEM_SHAPE_VOLUME>
288.2

> <PUBCHEM_COORDINATE_TYPE>
2
5
10

$$$$

