4118
  -OEChem-06251223543D

 76 77  0     1  0  0  0  0  0999 V2000
    0.9987   -2.4976   -2.2645 O   0  0  0  0  0  0  0  0  0  0  0  0
    2.3808   -2.8747    2.3055 O   0  0  0  0  0  0  0  0  0  0  0  0
    0.9923   -3.8851    0.1325 O   0  0  0  0  0  0  0  0  0  0  0  0
   -6.8445    0.8086   -0.6155 O   0  0  0  0  0  0  0  0  0  0  0  0
   -6.1925   -1.8885   -0.4483 O   0  0  0  0  0  0  0  0  0  0  0  0
   -0.5274    3.5052    0.5635 N   0  3  2  0  0  0  0  0  0  0  0  0
    5.0602    1.6841    1.9472 N   0  0  0  0  0  0  0  0  0  0  0  0
    3.8484    1.0233   -0.3262 C   0  0  2  0  0  0  0  0  0  0  0  0
    2.9098    2.2421   -0.6669 C   0  0  0  0  0  0  0  0  0  0  0  0
    4.9811    0.9243   -1.4352 C   0  0  0  0  0  0  0  0  0  0  0  0
    1.5860    2.2947    0.1246 C   0  0  0  0  0  0  0  0  0  0  0  0
    0.7314    3.5112   -0.2179 C   0  0  0  0  0  0  0  0  0  0  0  0
    3.0740   -0.3070   -0.2017 C   0  0  0  0  0  0  0  0  0  0  0  0
   -1.5346    2.5107    0.0377 C   0  0  0  0  0  0  0  0  0  0  0  0
    6.0179   -0.1834   -1.1717 C   0  0  0  0  0  0  0  0  0  0  0  0
    5.7373    2.2314   -1.7159 C   0  0  0  0  0  0  0  0  0  0  0  0
   -1.1384    4.8797    0.6949 C   0  0  0  0  0  0  0  0  0  0  0  0
    4.5275    1.3897    0.9584 C   0  0  0  0  0  0  0  0  0  0  0  0
   -2.4526    2.0439    1.1622 C   0  0  0  0  0  0  0  0  0  0  0  0
    3.0735   -1.0032    1.0069 C   0  0  0  0  0  0  0  0  0  0  0  0
    2.3757   -0.8126   -1.2983 C   0  0  0  0  0  0  0  0  0  0  0  0
    1.6766   -2.0144   -1.1861 C   0  0  0  0  0  0  0  0  0  0  0  0
    2.3744   -2.2051    1.1192 C   0  0  0  0  0  0  0  0  0  0  0  0
   -3.4520    0.9984    0.7323 C   0  0  0  0  0  0  0  0  0  0  0  0
    1.6759   -2.7105    0.0227 C   0  0  0  0  0  0  0  0  0  0  0  0
   -4.7027    1.3851    0.2509 C   0  0  0  0  0  0  0  0  0  0  0  0
   -3.1248   -0.3550    0.8163 C   0  0  0  0  0  0  0  0  0  0  0  0
   -5.6263    0.4184   -0.1469 C   0  0  0  0  0  0  0  0  0  0  0  0
   -4.0486   -1.3216    0.4187 C   0  0  0  0  0  0  0  0  0  0  0  0
   -5.2993   -0.9350   -0.0630 C   0  0  0  0  0  0  0  0  0  0  0  0
    1.0506   -1.7246   -3.4621 C   0  0  0  0  0  0  0  0  0  0  0  0
    3.1194   -2.2895    3.3761 C   0  0  0  0  0  0  0  0  0  0  0  0
   -0.3682   -3.8052    0.5509 C   0  0  0  0  0  0  0  0  0  0  0  0
   -7.0996    2.2107   -0.6694 C   0  0  0  0  0  0  0  0  0  0  0  0
   -5.7798   -3.2486   -0.3307 C   0  0  0  0  0  0  0  0  0  0  0  0
    2.6483    2.2017   -1.7331 H   0  0  0  0  0  0  0  0  0  0  0  0
    3.4391    3.1916   -0.5114 H   0  0  0  0  0  0  0  0  0  0  0  0
    4.4940    0.6605   -2.3841 H   0  0  0  0  0  0  0  0  0  0  0  0
    1.8125    2.3094    1.1981 H   0  0  0  0  0  0  0  0  0  0  0  0
    1.0216    1.3782   -0.0612 H   0  0  0  0  0  0  0  0  0  0  0  0
    1.2819    4.4232    0.0403 H   0  0  0  0  0  0  0  0  0  0  0  0
    0.4746    3.5494   -1.2827 H   0  0  0  0  0  0  0  0  0  0  0  0
   -0.2775    3.2186    1.5198 H   0  0  0  0  0  0  0  0  0  0  0  0
   -2.0884    2.9892   -0.7789 H   0  0  0  0  0  0  0  0  0  0  0  0
   -1.0025    1.6535   -0.3842 H   0  0  0  0  0  0  0  0  0  0  0  0
    6.6071    0.0183   -0.2714 H   0  0  0  0  0  0  0  0  0  0  0  0
    5.5429   -1.1623   -1.0580 H   0  0  0  0  0  0  0  0  0  0  0  0
    6.7168   -0.2632   -2.0120 H   0  0  0  0  0  0  0  0  0  0  0  0
    6.2532    2.6046   -0.8257 H   0  0  0  0  0  0  0  0  0  0  0  0
    5.0675    3.0151   -2.0813 H   0  0  0  0  0  0  0  0  0  0  0  0
    6.4937    2.0792   -2.4944 H   0  0  0  0  0  0  0  0  0  0  0  0
   -0.3922    5.5368    1.1500 H   0  0  0  0  0  0  0  0  0  0  0  0
   -2.0118    4.8204    1.3468 H   0  0  0  0  0  0  0  0  0  0  0  0
   -1.4116    5.2354   -0.3022 H   0  0  0  0  0  0  0  0  0  0  0  0
   -3.0011    2.8876    1.5974 H   0  0  0  0  0  0  0  0  0  0  0  0
   -1.8519    1.6364    1.9867 H   0  0  0  0  0  0  0  0  0  0  0  0
    3.6176   -0.6010    1.8477 H   0  0  0  0  0  0  0  0  0  0  0  0
    2.3986   -0.2289   -2.2111 H   0  0  0  0  0  0  0  0  0  0  0  0
   -4.8987    2.4512    0.2058 H   0  0  0  0  0  0  0  0  0  0  0  0
   -2.1519   -0.6676    1.1868 H   0  0  0  0  0  0  0  0  0  0  0  0
   -3.7252   -2.3528    0.5107 H   0  0  0  0  0  0  0  0  0  0  0  0
    0.5827   -0.7431   -3.3296 H   0  0  0  0  0  0  0  0  0  0  0  0
    2.0713   -1.6525   -3.8530 H   0  0  0  0  0  0  0  0  0  0  0  0
    0.4602   -2.2578   -4.2147 H   0  0  0  0  0  0  0  0  0  0  0  0
    4.1897   -2.2360    3.1488 H   0  0  0  0  0  0  0  0  0  0  0  0
    2.7027   -1.3212    3.6743 H   0  0  0  0  0  0  0  0  0  0  0  0
    3.0144   -2.9557    4.2390 H   0  0  0  0  0  0  0  0  0  0  0  0
   -0.4412   -3.3498    1.5436 H   0  0  0  0  0  0  0  0  0  0  0  0
   -0.9592   -3.2300   -0.1691 H   0  0  0  0  0  0  0  0  0  0  0  0
   -0.7716   -4.8202    0.6018 H   0  0  0  0  0  0  0  0  0  0  0  0
   -7.0898    2.6618    0.3287 H   0  0  0  0  0  0  0  0  0  0  0  0
   -6.4216    2.7182   -1.3641 H   0  0  0  0  0  0  0  0  0  0  0  0
   -8.1126    2.3386   -1.0652 H   0  0  0  0  0  0  0  0  0  0  0  0
   -6.6115   -3.8692   -0.6805 H   0  0  0  0  0  0  0  0  0  0  0  0
   -5.5939   -3.5252    0.7127 H   0  0  0  0  0  0  0  0  0  0  0  0
   -4.9247   -3.4686   -0.9790 H   0  0  0  0  0  0  0  0  0  0  0  0
  1 22  1  0  0  0  0
  1 31  1  0  0  0  0
  2 23  1  0  0  0  0
  2 32  1  0  0  0  0
  3 25  1  0  0  0  0
  3 33  1  0  0  0  0
  4 28  1  0  0  0  0
  4 34  1  0  0  0  0
  5 30  1  0  0  0  0
  5 35  1  0  0  0  0
  6 12  1  0  0  0  0
  6 14  1  0  0  0  0
  6 17  1  0  0  0  0
  6 43  1  0  0  0  0
  7 18  3  0  0  0  0
  8  9  1  0  0  0  0
  8 10  1  0  0  0  0
  8 13  1  0  0  0  0
  8 18  1  0  0  0  0
  9 11  1  0  0  0  0
  9 36  1  0  0  0  0
  9 37  1  0  0  0  0
 10 15  1  0  0  0  0
 10 16  1  0  0  0  0
 10 38  1  0  0  0  0
 11 12  1  0  0  0  0
 11 39  1  0  0  0  0
 11 40  1  0  0  0  0
 12 41  1  0  0  0  0
 12 42  1  0  0  0  0
 13 20  2  0  0  0  0
 13 21  1  0  0  0  0
 14 19  1  0  0  0  0
 14 44  1  0  0  0  0
 14 45  1  0  0  0  0
 15 46  1  0  0  0  0
 15 47  1  0  0  0  0
 15 48  1  0  0  0  0
 16 49  1  0  0  0  0
 16 50  1  0  0  0  0
 16 51  1  0  0  0  0
 17 52  1  0  0  0  0
 17 53  1  0  0  0  0
 17 54  1  0  0  0  0
 19 24  1  0  0  0  0
 19 55  1  0  0  0  0
 19 56  1  0  0  0  0
 20 23  1  0  0  0  0
 20 57  1  0  0  0  0
 21 22  2  0  0  0  0
 21 58  1  0  0  0  0
 22 25  1  0  0  0  0
 23 25  2  0  0  0  0
 24 26  2  0  0  0  0
 24 27  1  0  0  0  0
 26 28  1  0  0  0  0
 26 59  1  0  0  0  0
 27 29  2  0  0  0  0
 27 60  1  0  0  0  0
 28 30  2  0  0  0  0
 29 30  1  0  0  0  0
 29 61  1  0  0  0  0
 31 62  1  0  0  0  0
 31 63  1  0  0  0  0
 31 64  1  0  0  0  0
 32 65  1  0  0  0  0
 32 66  1  0  0  0  0
 32 67  1  0  0  0  0
 33 68  1  0  0  0  0
 33 69  1  0  0  0  0
 33 70  1  0  0  0  0
 34 71  1  0  0  0  0
 34 72  1  0  0  0  0
 34 73  1  0  0  0  0
 35 74  1  0  0  0  0
 35 75  1  0  0  0  0
 35 76  1  0  0  0  0
M  CHG  1   6   1
M  END
> <PUBCHEM_COMPOUND_CID>
4118

> <PUBCHEM_CONFORMER_RMSD>
1.2

> <PUBCHEM_CONFORMER_DIVERSEORDER>
2
93
27
43
4
53
122
79
98
97
107
78
57
99
67
17
110
31
106
3
90
74
83
52
117
11
127
25
125
121
12
14
86
37
38
47
28
22
101
82
62
91
76
124
77
69
112
118
120
48
34
18
61
102
15
23
94
21
113
111
42
123
26
54
87
56
100
24
126
58
41
92
6
81
116
33
8
30
60
39
108
65
35
36
80
40
29
115
7
1
89
71
51
95
119
75
55
9
20
114
13
10
32
63
16
46
59
85
84
88
70
103
49
109
96
72
44
66
104
50
5
68
73
45
19
64
105

> <PUBCHEM_MMFF94_PARTIAL_CHARGES>
36
1 -0.36
12 0.5
13 -0.14
14 0.5
17 0.5
18 0.36
19 0.14
2 -0.36
20 -0.15
21 -0.15
22 0.08
23 0.08
24 -0.14
25 0.08
26 -0.15
27 -0.15
28 0.08
29 -0.15
3 -0.36
30 0.08
31 0.28
32 0.28
33 0.28
34 0.28
35 0.28
4 -0.36
43 0.45
5 -0.36
57 0.15
58 0.15
59 0.15
6 -0.96
60 0.15
61 0.15
7 -0.56
8 0.34

> <PUBCHEM_EFFECTIVE_ROTOR_COUNT>
14

> <PUBCHEM_PHARMACOPHORE_FEATURES>
12
1 1 acceptor
1 2 acceptor
1 3 acceptor
1 4 acceptor
1 5 acceptor
1 6 cation
1 6 donor
1 7 acceptor
3 10 15 16 hydrophobe
4 8 9 10 11 hydrophobe
6 13 20 21 22 23 25 rings
6 24 26 27 28 29 30 rings

> <PUBCHEM_HEAVY_ATOM_COUNT>
35

> <PUBCHEM_ATOM_DEF_STEREO_COUNT>
0

> <PUBCHEM_ATOM_UDEF_STEREO_COUNT>
1

> <PUBCHEM_BOND_DEF_STEREO_COUNT>
0

> <PUBCHEM_BOND_UDEF_STEREO_COUNT>
0

> <PUBCHEM_ISOTOPIC_ATOM_COUNT>
0

> <PUBCHEM_COMPONENT_COUNT>
1

> <PUBCHEM_CACTVS_TAUTO_COUNT>
1

> <PUBCHEM_CONFORMER_ID>
0000101600000002

> <PUBCHEM_MMFF94_ENERGY>
147.3646

> <PUBCHEM_FEATURE_SELFOVERLAP>
60.926

> <PUBCHEM_SHAPE_FINGERPRINT>
10006869 2 18337403720233453482
10864689 126 18335420192245219317
11488393 25 17752177725848405078
12788726 201 18337668745327802073
14068700 686 18186239536894898768
15183329 4 18411136970483560453
15250474 111 18340486789224106657
16114785 44 15294952456658242832
17809404 112 15912746375956765937
19315092 285 17631750359739729899
20028762 73 18334287674400292460
20764821 26 17907572884885190385
21133410 62 18198640856141368799
23559900 14 17679858486581603887
25222932 49 18339929225191030679
394071 54 18115011001136974233
437795 70 18116974621366450350
463206 1 18265046943063690569
5309563 4 18335699399922789901
6823239 73 17825655922841376732

> <PUBCHEM_SHAPE_MULTIPOLES>
680.97
15.31
5.53
2.16
19.65
0.75
0.03
2.88
2.97
0.93
-1.06
-3.28
-1.71
-1.48

> <PUBCHEM_SHAPE_SELFOVERLAP>
1394.547

> <PUBCHEM_SHAPE_VOLUME>
394.7

> <PUBCHEM_COORDINATE_TYPE>
2
5
10

$$$$

