47205064
  -OEChem-06241222583D

 29 31  0     0  0  0  0  0  0999 V2000
    3.2242   -2.0351   -0.2409 O   0  0  0  0  0  0  0  0  0  0  0  0
    4.8451   -0.3562    0.3602 O   0  0  0  0  0  0  0  0  0  0  0  0
   -0.9223    2.1876    0.3775 O   0  0  0  0  0  0  0  0  0  0  0  0
   -1.2289    0.4198   -1.0914 N   0  0  0  0  0  0  0  0  0  0  0  0
   -3.7717   -1.3464   -0.4325 N   0  0  0  0  0  0  0  0  0  0  0  0
   -4.6080   -1.7773    0.5272 N   0  0  0  0  0  0  0  0  0  0  0  0
    0.9375    0.8287   -0.0611 C   0  0  0  0  0  0  0  0  0  0  0  0
    2.6631   -0.8040   -0.0937 C   0  0  0  0  0  0  0  0  0  0  0  0
    3.5887    0.1546    0.2496 C   0  0  0  0  0  0  0  0  0  0  0  0
    1.3275   -0.4983   -0.2572 C   0  0  0  0  0  0  0  0  0  0  0  0
   -2.6227    0.6767   -1.3744 C   0  0  0  0  0  0  0  0  0  0  0  0
    1.8832    1.8082    0.2897 C   0  0  0  0  0  0  0  0  0  0  0  0
    3.2298    1.4719    0.4486 C   0  0  0  0  0  0  0  0  0  0  0  0
   -0.4588    1.2018   -0.2226 C   0  0  0  0  0  0  0  0  0  0  0  0
   -3.5305   -0.0045   -0.3916 C   0  0  0  0  0  0  0  0  0  0  0  0
    4.6069   -1.7437    0.0478 C   0  0  0  0  0  0  0  0  0  0  0  0
   -4.2602    0.4759    0.6684 C   0  0  0  0  0  0  0  0  0  0  0  0
   -4.9030   -0.6598    1.1965 C   0  0  0  0  0  0  0  0  0  0  0  0
    0.6310   -1.2929   -0.4993 H   0  0  0  0  0  0  0  0  0  0  0  0
   -2.7983    1.7580   -1.3594 H   0  0  0  0  0  0  0  0  0  0  0  0
   -2.8259    0.3162   -2.3886 H   0  0  0  0  0  0  0  0  0  0  0  0
    1.5837    2.8430    0.4382 H   0  0  0  0  0  0  0  0  0  0  0  0
    3.9623    2.2242    0.7181 H   0  0  0  0  0  0  0  0  0  0  0  0
   -0.8022   -0.3455   -1.6022 H   0  0  0  0  0  0  0  0  0  0  0  0
    5.2123   -2.0161   -0.8244 H   0  0  0  0  0  0  0  0  0  0  0  0
    4.9236   -2.3549    0.9007 H   0  0  0  0  0  0  0  0  0  0  0  0
   -4.3181    1.4987    1.0108 H   0  0  0  0  0  0  0  0  0  0  0  0
   -3.4000   -2.0263   -1.0842 H   0  0  0  0  0  0  0  0  0  0  0  0
   -5.5739   -0.7193    2.0414 H   0  0  0  0  0  0  0  0  0  0  0  0
  1  8  1  0  0  0  0
  1 16  1  0  0  0  0
  2  9  1  0  0  0  0
  2 16  1  0  0  0  0
  3 14  2  0  0  0  0
  4 11  1  0  0  0  0
  4 14  1  0  0  0  0
  4 24  1  0  0  0  0
  5  6  1  0  0  0  0
  5 15  1  0  0  0  0
  5 28  1  0  0  0  0
  6 18  2  0  0  0  0
  7 10  2  0  0  0  0
  7 12  1  0  0  0  0
  7 14  1  0  0  0  0
  8  9  2  0  0  0  0
  8 10  1  0  0  0  0
  9 13  1  0  0  0  0
 10 19  1  0  0  0  0
 11 15  1  0  0  0  0
 11 20  1  0  0  0  0
 11 21  1  0  0  0  0
 12 13  2  0  0  0  0
 12 22  1  0  0  0  0
 13 23  1  0  0  0  0
 15 17  2  0  0  0  0
 16 25  1  0  0  0  0
 16 26  1  0  0  0  0
 17 18  1  0  0  0  0
 17 27  1  0  0  0  0
 18 29  1  0  0  0  0
M  END
> <PUBCHEM_COMPOUND_CID>
47205064

> <PUBCHEM_CONFORMER_RMSD>
0.6

> <PUBCHEM_CONFORMER_DIVERSEORDER>
1
59
54
31
68
55
47
32
35
65
71
27
49
57
38
12
66
56
51
70
9
25
60
36
34
4
67
23
40
44
64
19
72
10
52
50
33
37
45
69
17
28
30
48
41
7
18
42
3
20
62
21
11
58
6
61
15
24
39
26
16
53
2
29
14
22
5
63
13
46
8
43

> <PUBCHEM_MMFF94_PARTIAL_CHARGES>
25
1 -0.36
10 -0.15
11 0.48
12 -0.15
13 -0.15
14 0.54
15 -0.33
16 0.56
17 -0.15
18 0.14
19 0.15
2 -0.36
22 0.15
23 0.15
24 0.37
27 0.15
28 0.27
29 0.15
3 -0.57
4 -0.73
5 0.3
6 -0.71
7 0.09
8 0.08
9 0.08

> <PUBCHEM_EFFECTIVE_ROTOR_COUNT>
4.6

> <PUBCHEM_PHARMACOPHORE_FEATURES>
9
1 1 acceptor
1 2 acceptor
1 3 acceptor
1 4 donor
1 5 donor
1 6 acceptor
5 1 2 8 9 16 rings
5 5 6 15 17 18 rings
6 7 8 9 10 12 13 rings

> <PUBCHEM_HEAVY_ATOM_COUNT>
18

> <PUBCHEM_ATOM_DEF_STEREO_COUNT>
0

> <PUBCHEM_ATOM_UDEF_STEREO_COUNT>
0

> <PUBCHEM_BOND_DEF_STEREO_COUNT>
0

> <PUBCHEM_BOND_UDEF_STEREO_COUNT>
0

> <PUBCHEM_ISOTOPIC_ATOM_COUNT>
0

> <PUBCHEM_COMPONENT_COUNT>
1

> <PUBCHEM_CACTVS_TAUTO_COUNT>
4

> <PUBCHEM_CONFORMER_ID>
02D04AC800000001

> <PUBCHEM_MMFF94_ENERGY>
33.7036

> <PUBCHEM_FEATURE_SELFOVERLAP>
45.825

> <PUBCHEM_SHAPE_FINGERPRINT>
11128504 68 15267334124157069870
11370993 144 18337668715499829153
11543360 7 16415474973918430252
11552529 35 17823702949904970879
11796584 16 17344083007093894898
12032990 46 18341897402327962308
12596602 18 16950282854212806787
12633257 1 15791735183066166329
12670546 177 12319733657364621545
12892183 10 18187643536450283825
13103583 49 18041264518399388971
13533116 47 18189900808342356815
13544653 18 18413110545977074125
13675066 3 17822014228476571961
13740256 8 18413106169352645174
14123255 352 7493278941450999619
14252887 29 18341335509052618392
14341114 176 18334570261151150649
14350574 20 18343861134891037566
14386348 63 18202284697520152795
14790565 3 17689996730966860232
15375462 189 17895198774609293272
15475509 84 17749380524695418601
15527383 91 18334292076414898249
1813 80 17561360660896527053
18785283 64 18197223551262122112
19141452 34 18412543189888418719
193927 3 18261670493210216702
20261772 1 18040721341916495550
20281475 54 18340765940807593717
20432913 95 18411417293743540227
20645477 70 18263663864461673013
21065198 48 18114176394343721153
21267235 1 18335416920392847286
212916 134 14490190522832362389
21673915 165 18266181625967962223
221490 88 18411421734829693756
22950370 63 18410848867390396236
23402539 116 15051456058493717788
23557571 272 17560255694449587709
23559900 14 18343029903647154524
26918003 58 18410298038072203889
316301 35 18202568367209860794
3268164 11 15769784580137009095
341906 21 4750874840623913235
5104073 3 18189626115023841048
5352402 22 18411131425020722707
5924683 9 17822860771643492679
7495541 125 18202284697746960724
83771 10 18413389830404412581

> <PUBCHEM_SHAPE_MULTIPOLES>
337.88
11.09
1.99
0.94
4.33
0.08
-0.09
5.58
2.46
-0.9
0.16
0.92
-0.06
0.64

> <PUBCHEM_SHAPE_SELFOVERLAP>
742.232

> <PUBCHEM_SHAPE_VOLUME>
182.3

> <PUBCHEM_COORDINATE_TYPE>
2
5
10

$$$$

