12095
  -OEChem-06241222292D

 22 22  0     0  0  0  0  0  0999 V2000
    4.5981    2.9400    0.0000 O   0  0  0  0  0  0  0  0  0  0  0  0
    2.8660    2.9400    0.0000 O   0  0  0  0  0  0  0  0  0  0  0  0
    2.0000   -3.5600    0.0000 O   0  5  0  0  0  0  0  0  0  0  0  0
    3.7320   -3.5600    0.0000 O   0  0  0  0  0  0  0  0  0  0  0  0
    2.8660    0.9400    0.0000 N   0  0  0  0  0  0  0  0  0  0  0  0
    2.8660   -3.0600    0.0000 N   0  3  0  0  0  0  0  0  0  0  0  0
    2.8660   -0.0600    0.0000 C   0  0  0  0  0  0  0  0  0  0  0  0
    2.0000   -0.5600    0.0000 C   0  0  0  0  0  0  0  0  0  0  0  0
    3.7320   -0.5600    0.0000 C   0  0  0  0  0  0  0  0  0  0  0  0
    3.7320    1.4400    0.0000 C   0  0  0  0  0  0  0  0  0  0  0  0
    2.8660   -2.0600    0.0000 C   0  0  0  0  0  0  0  0  0  0  0  0
    2.0000   -1.5600    0.0000 C   0  0  0  0  0  0  0  0  0  0  0  0
    3.7320   -1.5600    0.0000 C   0  0  0  0  0  0  0  0  0  0  0  0
    3.7320    2.4400    0.0000 C   0  0  0  0  0  0  0  0  0  0  0  0
    2.3291    1.2500    0.0000 H   0  0  0  0  0  0  0  0  0  0  0  0
    1.4631   -0.2500    0.0000 H   0  0  0  0  0  0  0  0  0  0  0  0
    4.2690   -0.2500    0.0000 H   0  0  0  0  0  0  0  0  0  0  0  0
    3.9441    0.8574    0.0000 H   0  0  0  0  0  0  0  0  0  0  0  0
    4.3426    1.5477    0.0000 H   0  0  0  0  0  0  0  0  0  0  0  0
    1.4631   -1.8700    0.0000 H   0  0  0  0  0  0  0  0  0  0  0  0
    4.2690   -1.8700    0.0000 H   0  0  0  0  0  0  0  0  0  0  0  0
    4.5981    3.5600    0.0000 H   0  0  0  0  0  0  0  0  0  0  0  0
  1 14  1  0  0  0  0
  1 22  1  0  0  0  0
  2 14  2  0  0  0  0
  3  6  1  0  0  0  0
  4  6  2  0  0  0  0
  5  7  1  0  0  0  0
  5 10  1  0  0  0  0
  5 15  1  0  0  0  0
  6 11  1  0  0  0  0
  7  8  2  0  0  0  0
  7  9  1  0  0  0  0
  8 12  1  0  0  0  0
  8 16  1  0  0  0  0
  9 13  2  0  0  0  0
  9 17  1  0  0  0  0
 10 14  1  0  0  0  0
 10 18  1  0  0  0  0
 10 19  1  0  0  0  0
 11 12  2  0  0  0  0
 11 13  1  0  0  0  0
 12 20  1  0  0  0  0
 13 21  1  0  0  0  0
M  CHG  2   3  -1   6   1
M  END
> <PUBCHEM_COMPOUND_CID>
12095

> <PUBCHEM_COMPOUND_CANONICALIZED>
1

> <PUBCHEM_CACTVS_COMPLEXITY>
218

> <PUBCHEM_CACTVS_HBOND_ACCEPTOR>
5

> <PUBCHEM_CACTVS_HBOND_DONOR>
2

> <PUBCHEM_CACTVS_ROTATABLE_BOND>
3

> <PUBCHEM_CACTVS_SUBSKEYS>
AAADccBzOAAAAAAAAAAAAAAAAAAAAAAAAAAwAAAAAAAAAAABAAAAHgAUCAAACAjBkAQwyILQQgCJACTSSwCCAAAhAgAoiICIZIoKICLAkbGEIAhgkADYyAcQAAAAAACAAAAAAAAAAQAAAAAAAAAAAAAAAA==

> <PUBCHEM_IUPAC_OPENEYE_NAME>
2-(4-nitroanilino)acetic acid

> <PUBCHEM_IUPAC_CAS_NAME>
2-(4-nitroanilino)acetic acid

> <PUBCHEM_IUPAC_NAME>
2-(4-nitroanilino)acetic acid

> <PUBCHEM_IUPAC_SYSTEMATIC_NAME>
2-[(4-nitrophenyl)amino]ethanoic acid

> <PUBCHEM_IUPAC_TRADITIONAL_NAME>
2-(4-nitroanilino)acetic acid

> <PUBCHEM_IUPAC_INCHI>
InChI=1S/C8H8N2O4/c11-8(12)5-9-6-1-3-7(4-2-6)10(13)14/h1-4,9H,5H2,(H,11,12)

> <PUBCHEM_IUPAC_INCHIKEY>
MTRZHSVFAGKMOA-UHFFFAOYSA-N

> <PUBCHEM_XLOGP3>
0.4

> <PUBCHEM_EXACT_MASS>
196.048407

> <PUBCHEM_MOLECULAR_FORMULA>
C8H8N2O4

> <PUBCHEM_MOLECULAR_WEIGHT>
196.16012

> <PUBCHEM_OPENEYE_CAN_SMILES>
C1=CC(=CC=C1NCC(=O)O)[N+](=O)[O-]

> <PUBCHEM_OPENEYE_ISO_SMILES>
C1=CC(=CC=C1NCC(=O)O)[N+](=O)[O-]

> <PUBCHEM_CACTVS_TPSA>
95.2

> <PUBCHEM_MONOISOTOPIC_WEIGHT>
196.048407

> <PUBCHEM_TOTAL_CHARGE>
0

> <PUBCHEM_HEAVY_ATOM_COUNT>
14

> <PUBCHEM_ATOM_DEF_STEREO_COUNT>
0

> <PUBCHEM_ATOM_UDEF_STEREO_COUNT>
0

> <PUBCHEM_BOND_DEF_STEREO_COUNT>
0

> <PUBCHEM_BOND_UDEF_STEREO_COUNT>
0

> <PUBCHEM_ISOTOPIC_ATOM_COUNT>
0

> <PUBCHEM_COMPONENT_COUNT>
1

> <PUBCHEM_CACTVS_TAUTO_COUNT>
1

> <PUBCHEM_COORDINATE_TYPE>
1
5
255

> <PUBCHEM_BONDANNOTATIONS>
11  12  8
11  13  8
7  8  8
7  9  8
8  12  8
9  13  8

$$$$

