4746
  -OEChem-06261200193D

 55 57  0     1  0  0  0  0  0999 V2000
   -2.6167   -0.7223    1.1045 N   0  0  0  0  0  0  0  0  0  0  0  0
    0.2981   -0.2900    0.6324 C   0  0  0  0  0  0  0  0  0  0  0  0
    1.7383   -0.7758    0.4846 C   0  0  0  0  0  0  0  0  0  0  0  0
    0.2350    1.2188    0.4054 C   0  0  0  0  0  0  0  0  0  0  0  0
   -0.6651   -1.0027   -0.3339 C   0  0  0  0  0  0  0  0  0  0  0  0
    2.2889   -0.4370   -0.9120 C   0  0  0  0  0  0  0  0  0  0  0  0
    1.8509   -2.2757    0.7682 C   0  0  0  0  0  0  0  0  0  0  0  0
    0.5818    1.5785   -1.0414 C   0  0  0  0  0  0  0  0  0  0  0  0
    1.1553    1.9589    1.3921 C   0  0  0  0  0  0  0  0  0  0  0  0
   -2.1022   -0.4912   -0.2511 C   0  0  1  0  0  0  0  0  0  0  0  0
    3.4349   -1.3494   -1.3583 C   0  0  0  0  0  0  0  0  0  0  0  0
    3.3051   -2.7540    0.7374 C   0  0  0  0  0  0  0  0  0  0  0  0
    0.4079    3.0755   -1.3127 C   0  0  0  0  0  0  0  0  0  0  0  0
    1.6118    3.3330    0.8936 C   0  0  0  0  0  0  0  0  0  0  0  0
    4.2053   -1.9221   -0.1773 C   0  0  0  0  0  0  0  0  0  0  0  0
    0.6148    3.9513   -0.0759 C   0  0  0  0  0  0  0  0  0  0  0  0
   -2.9837   -1.1913   -1.2945 C   0  0  0  0  0  0  0  0  0  0  0  0
   -4.4398   -0.7506   -1.1729 C   0  0  0  0  0  0  0  0  0  0  0  0
   -3.9892   -0.2370    1.2511 C   0  0  0  0  0  0  0  0  0  0  0  0
   -4.9315   -0.9170    0.2608 C   0  0  0  0  0  0  0  0  0  0  0  0
   -0.0032   -0.4998    1.6666 H   0  0  0  0  0  0  0  0  0  0  0  0
    2.3890   -0.3241    1.2362 H   0  0  0  0  0  0  0  0  0  0  0  0
   -0.7740    1.5880    0.6209 H   0  0  0  0  0  0  0  0  0  0  0  0
   -0.6860   -2.0714   -0.0819 H   0  0  0  0  0  0  0  0  0  0  0  0
   -0.3378   -0.9750   -1.3759 H   0  0  0  0  0  0  0  0  0  0  0  0
    2.8473    0.4976   -0.7980 H   0  0  0  0  0  0  0  0  0  0  0  0
    1.5857   -0.4524   -1.7426 H   0  0  0  0  0  0  0  0  0  0  0  0
    1.3042   -2.8494    0.0105 H   0  0  0  0  0  0  0  0  0  0  0  0
    1.4059   -2.5295    1.7376 H   0  0  0  0  0  0  0  0  0  0  0  0
    1.6153    1.5417   -1.3268 H   0  0  0  0  0  0  0  0  0  0  0  0
   -0.0193    1.0533   -1.7875 H   0  0  0  0  0  0  0  0  0  0  0  0
    0.5865    2.1003    2.3219 H   0  0  0  0  0  0  0  0  0  0  0  0
    2.0561    1.4358    1.7051 H   0  0  0  0  0  0  0  0  0  0  0  0
   -2.1439    0.5779   -0.4840 H   0  0  0  0  0  0  0  0  0  0  0  0
    3.0238   -2.1811   -1.9453 H   0  0  0  0  0  0  0  0  0  0  0  0
    4.1121   -0.8053   -2.0275 H   0  0  0  0  0  0  0  0  0  0  0  0
    3.7228   -2.7341    1.7514 H   0  0  0  0  0  0  0  0  0  0  0  0
    3.3240   -3.8044    0.4218 H   0  0  0  0  0  0  0  0  0  0  0  0
    1.0912    3.3936   -2.1114 H   0  0  0  0  0  0  0  0  0  0  0  0
   -0.6030    3.2609   -1.6979 H   0  0  0  0  0  0  0  0  0  0  0  0
    1.7718    4.0002    1.7482 H   0  0  0  0  0  0  0  0  0  0  0  0
    2.5820    3.2311    0.3907 H   0  0  0  0  0  0  0  0  0  0  0  0
    4.6497   -1.0995    0.3970 H   0  0  0  0  0  0  0  0  0  0  0  0
    5.0390   -2.5393   -0.5310 H   0  0  0  0  0  0  0  0  0  0  0  0
   -0.3455    4.0924    0.4363 H   0  0  0  0  0  0  0  0  0  0  0  0
    0.9517    4.9477   -0.3835 H   0  0  0  0  0  0  0  0  0  0  0  0
   -2.6217   -0.9683   -2.3053 H   0  0  0  0  0  0  0  0  0  0  0  0
   -2.9258   -2.2805   -1.1690 H   0  0  0  0  0  0  0  0  0  0  0  0
   -2.0372   -0.2375    1.7873 H   0  0  0  0  0  0  0  0  0  0  0  0
   -4.5301    0.3011   -1.4714 H   0  0  0  0  0  0  0  0  0  0  0  0
   -5.0672   -1.3339   -1.8557 H   0  0  0  0  0  0  0  0  0  0  0  0
   -4.0201    0.8515    1.1190 H   0  0  0  0  0  0  0  0  0  0  0  0
   -4.3309   -0.4450    2.2709 H   0  0  0  0  0  0  0  0  0  0  0  0
   -5.0062   -1.9857    0.4989 H   0  0  0  0  0  0  0  0  0  0  0  0
   -5.9387   -0.4967    0.3579 H   0  0  0  0  0  0  0  0  0  0  0  0
  1 10  1  0  0  0  0
  1 19  1  0  0  0  0
  1 49  1  0  0  0  0
  2  3  1  0  0  0  0
  2  4  1  0  0  0  0
  2  5  1  0  0  0  0
  2 21  1  0  0  0  0
  3  6  1  0  0  0  0
  3  7  1  0  0  0  0
  3 22  1  0  0  0  0
  4  8  1  0  0  0  0
  4  9  1  0  0  0  0
  4 23  1  0  0  0  0
  5 10  1  0  0  0  0
  5 24  1  0  0  0  0
  5 25  1  0  0  0  0
  6 11  1  0  0  0  0
  6 26  1  0  0  0  0
  6 27  1  0  0  0  0
  7 12  1  0  0  0  0
  7 28  1  0  0  0  0
  7 29  1  0  0  0  0
  8 13  1  0  0  0  0
  8 30  1  0  0  0  0
  8 31  1  0  0  0  0
  9 14  1  0  0  0  0
  9 32  1  0  0  0  0
  9 33  1  0  0  0  0
 10 17  1  0  0  0  0
 10 34  1  0  0  0  0
 11 15  1  0  0  0  0
 11 35  1  0  0  0  0
 11 36  1  0  0  0  0
 12 15  1  0  0  0  0
 12 37  1  0  0  0  0
 12 38  1  0  0  0  0
 13 16  1  0  0  0  0
 13 39  1  0  0  0  0
 13 40  1  0  0  0  0
 14 16  1  0  0  0  0
 14 41  1  0  0  0  0
 14 42  1  0  0  0  0
 15 43  1  0  0  0  0
 15 44  1  0  0  0  0
 16 45  1  0  0  0  0
 16 46  1  0  0  0  0
 17 18  1  0  0  0  0
 17 47  1  0  0  0  0
 17 48  1  0  0  0  0
 18 20  1  0  0  0  0
 18 50  1  0  0  0  0
 18 51  1  0  0  0  0
 19 20  1  0  0  0  0
 19 52  1  0  0  0  0
 19 53  1  0  0  0  0
 20 54  1  0  0  0  0
 20 55  1  0  0  0  0
M  END
> <PUBCHEM_COMPOUND_CID>
4746

> <PUBCHEM_CONFORMER_RMSD>
0.8

> <PUBCHEM_CONFORMER_DIVERSEORDER>
1
5
3
4
2
6

> <PUBCHEM_MMFF94_PARTIAL_CHARGES>
4
1 -0.9
10 0.27
19 0.27
49 0.36

> <PUBCHEM_EFFECTIVE_ROTOR_COUNT>
7.6

> <PUBCHEM_PHARMACOPHORE_FEATURES>
5
1 1 cation
1 1 donor
6 1 10 17 18 19 20 rings
6 3 6 7 11 12 15 rings
6 4 8 9 13 14 16 rings

> <PUBCHEM_HEAVY_ATOM_COUNT>
20

> <PUBCHEM_ATOM_DEF_STEREO_COUNT>
0

> <PUBCHEM_ATOM_UDEF_STEREO_COUNT>
1

> <PUBCHEM_BOND_DEF_STEREO_COUNT>
0

> <PUBCHEM_BOND_UDEF_STEREO_COUNT>
0

> <PUBCHEM_ISOTOPIC_ATOM_COUNT>
0

> <PUBCHEM_COMPONENT_COUNT>
1

> <PUBCHEM_CACTVS_TAUTO_COUNT>
1

> <PUBCHEM_CONFORMER_ID>
0000128A00000001

> <PUBCHEM_MMFF94_ENERGY>
59.4543

> <PUBCHEM_FEATURE_SELFOVERLAP>
25.371

> <PUBCHEM_SHAPE_FINGERPRINT>
10165383 225 16976409312051889273
104564 63 18123185968113970583
11265709 11 18337105765356614270
11578080 2 18043550475719208256
11582403 64 15216413348684363864
121448 382 10663231407641178627
12553582 1 18409730707009911355
12643181 29 16606034938140276382
12707595 3 18413108368281331963
12788726 201 17910398620951748242
13009979 54 17822001004710137411
13134695 92 18411983559258778829
13140716 1 17906175053323997576
13149001 5 18198042708466946626
13533116 47 18267578019316407059
13681431 1 18336538344115358556
13911987 19 17843652549282817622
13955234 65 18194957444806034761
14181834 199 18188492367420573997
14347329 18 16269137789450840621
14347332 77 18047460408446699086
14468879 13 14473256798282378998
14955137 171 18044063904704805363
17357779 13 18264225749337207061
17980427 23 17313108553237100985
1813 80 18261664969354909302
18222031 100 18113905991218193447
18785283 64 18056472842348039016
19078846 21 18335695104786091411
20097449 115 18410293644109410296
20369508 70 18411705369990474307
20600515 1 17967246512019179806
20671657 1 18265328413645018847
20671657 53 18409451405544647675
21041028 32 18339069488760510553
21524375 3 17615698327571878561
21641784 216 18057304275777308036
22112679 90 18046317950775615992
22182313 1 18197804204432180925
2255824 54 18336545997720901095
22849341 161 18116692153951483627
23175994 123 18271801363204762535
23402539 116 18338231695281183934
23419403 2 17535226446109007480
23526113 38 17489295382871949851
23557571 272 18192151714671144726
23558518 356 17761781667215881390
23559900 14 17703504382069830391
23598288 3 17762910152956643866
23598291 2 18186517679350435935
283562 15 18126283280012625802
3091708 16 9140858641503991192
312423 11 17969213452944086427
314173 85 18262238940442532974
352729 6 17328596522828296622
4409770 3 17764316432570425437
474 4 18049731719684308209
5895379 119 16154802761690427953
6049 1 17917997136043413815
6442390 28 17188102623727667619
7164475 11 18053097612845947798
7364860 26 18262237690358772725
7471813 234 18186807971979570097
7495541 125 18129933499602805747
7615 1 17676767561979949115
81228 2 18050841418947844288
9981440 41 17469616109057103657

> <PUBCHEM_SHAPE_MULTIPOLES>
406.61
7.49
4.04
1.42
7.57
4.76
0.12
-7.07
0.45
-3.94
-0.21
0.19
0.16
-0.07

> <PUBCHEM_SHAPE_SELFOVERLAP>
823.117

> <PUBCHEM_SHAPE_VOLUME>
231.6

> <PUBCHEM_COORDINATE_TYPE>
2
5
10

$$$$

