7846969
  -OEChem-06241222483D

 53 55  0     1  0  0  0  0  0999 V2000
    4.9486    0.1493   -0.0333 S   0  0  0  0  0  0  0  0  0  0  0  0
    1.0452    3.0633   -0.4711 O   0  0  0  0  0  0  0  0  0  0  0  0
    0.4443    0.5661   -1.3488 O   0  0  0  0  0  0  0  0  0  0  0  0
    0.8242    1.8329    1.4678 O   0  0  0  0  0  0  0  0  0  0  0  0
    2.7689   -0.3846    1.2381 N   0  0  0  0  0  0  0  0  0  0  0  0
   -5.4914   -1.1992    0.4751 C   0  0  0  0  0  0  0  0  0  0  0  0
   -4.1550   -0.5397    0.0964 C   0  0  0  0  0  0  0  0  0  0  0  0
   -5.3487   -2.6480    0.9942 C   0  0  0  0  0  0  0  0  0  0  0  0
   -6.4158   -1.2468   -0.7608 C   0  0  0  0  0  0  0  0  0  0  0  0
   -6.1771   -0.3811    1.5907 C   0  0  0  0  0  0  0  0  0  0  0  0
   -3.0024   -1.2693    0.2479 C   0  0  0  0  0  0  0  0  0  0  0  0
   -4.1752    0.7491   -0.3751 C   0  0  0  0  0  0  0  0  0  0  0  0
   -1.7704    0.6381   -0.5778 C   0  0  0  0  0  0  0  0  0  0  0  0
   -1.7901   -0.6705   -0.0950 C   0  0  0  0  0  0  0  0  0  0  0  0
   -2.9629    1.3477   -0.7179 C   0  0  0  0  0  0  0  0  0  0  0  0
   -0.3098    2.7880   -0.8083 C   0  0  2  0  0  0  0  0  0  0  0  0
   -0.5064    1.2620   -0.9356 C   0  0  0  0  0  0  0  0  0  0  0  0
    3.6942    1.8524    1.7284 C   0  0  0  0  0  0  0  0  0  0  0  0
    2.9374    2.9017    0.9127 C   0  0  0  0  0  0  0  0  0  0  0  0
   -0.6017    3.4895   -2.1245 C   0  0  0  0  0  0  0  0  0  0  0  0
    3.6884    0.5094    1.0443 C   0  0  0  0  0  0  0  0  0  0  0  0
    1.4894    2.5199    0.7050 C   0  0  0  0  0  0  0  0  0  0  0  0
    4.2252   -1.3914   -0.3094 C   0  0  0  0  0  0  0  0  0  0  0  0
    3.0630   -1.4954    0.4608 C   0  0  0  0  0  0  0  0  0  0  0  0
    4.6553   -2.4330   -1.1472 C   0  0  0  0  0  0  0  0  0  0  0  0
    2.3062   -2.6850    0.3881 C   0  0  0  0  0  0  0  0  0  0  0  0
    3.8881   -3.5993   -1.2008 C   0  0  0  0  0  0  0  0  0  0  0  0
    2.7285   -3.7259   -0.4439 C   0  0  0  0  0  0  0  0  0  0  0  0
   -6.3300   -3.0681    1.2485 H   0  0  0  0  0  0  0  0  0  0  0  0
   -4.9105   -3.3129    0.2405 H   0  0  0  0  0  0  0  0  0  0  0  0
   -4.7415   -2.6997    1.9057 H   0  0  0  0  0  0  0  0  0  0  0  0
   -7.3604   -1.7522   -0.5275 H   0  0  0  0  0  0  0  0  0  0  0  0
   -6.6729   -0.2479   -1.1295 H   0  0  0  0  0  0  0  0  0  0  0  0
   -5.9426   -1.7910   -1.5868 H   0  0  0  0  0  0  0  0  0  0  0  0
   -5.5303   -0.2962    2.4721 H   0  0  0  0  0  0  0  0  0  0  0  0
   -7.1128   -0.8554    1.9093 H   0  0  0  0  0  0  0  0  0  0  0  0
   -6.4299    0.6350    1.2691 H   0  0  0  0  0  0  0  0  0  0  0  0
   -2.9592   -2.2854    0.6184 H   0  0  0  0  0  0  0  0  0  0  0  0
   -5.0901    1.3201   -0.4910 H   0  0  0  0  0  0  0  0  0  0  0  0
   -0.8702   -1.2370    0.0256 H   0  0  0  0  0  0  0  0  0  0  0  0
   -2.9915    2.3673   -1.0848 H   0  0  0  0  0  0  0  0  0  0  0  0
   -0.9530    3.1910   -0.0173 H   0  0  0  0  0  0  0  0  0  0  0  0
    4.7209    2.1950    1.9053 H   0  0  0  0  0  0  0  0  0  0  0  0
    3.2297    1.7416    2.7164 H   0  0  0  0  0  0  0  0  0  0  0  0
    3.4185    3.0235   -0.0653 H   0  0  0  0  0  0  0  0  0  0  0  0
    2.9599    3.8677    1.4281 H   0  0  0  0  0  0  0  0  0  0  0  0
   -0.4486    4.5694   -2.0222 H   0  0  0  0  0  0  0  0  0  0  0  0
   -1.6180    3.3159   -2.4845 H   0  0  0  0  0  0  0  0  0  0  0  0
    0.0891    3.1486   -2.9047 H   0  0  0  0  0  0  0  0  0  0  0  0
    5.5596   -2.3412   -1.7410 H   0  0  0  0  0  0  0  0  0  0  0  0
    1.3982   -2.7938    0.9743 H   0  0  0  0  0  0  0  0  0  0  0  0
    4.2031   -4.4175   -1.8431 H   0  0  0  0  0  0  0  0  0  0  0  0
    2.1443   -4.6404   -0.4986 H   0  0  0  0  0  0  0  0  0  0  0  0
  1 21  1  0  0  0  0
  1 23  1  0  0  0  0
  2 16  1  0  0  0  0
  2 22  1  0  0  0  0
  3 17  2  0  0  0  0
  4 22  2  0  0  0  0
  5 21  2  0  0  0  0
  5 24  1  0  0  0  0
  6  7  1  0  0  0  0
  6  8  1  0  0  0  0
  6  9  1  0  0  0  0
  6 10  1  0  0  0  0
  7 11  2  0  0  0  0
  7 12  1  0  0  0  0
  8 29  1  0  0  0  0
  8 30  1  0  0  0  0
  8 31  1  0  0  0  0
  9 32  1  0  0  0  0
  9 33  1  0  0  0  0
  9 34  1  0  0  0  0
 10 35  1  0  0  0  0
 10 36  1  0  0  0  0
 10 37  1  0  0  0  0
 11 14  1  0  0  0  0
 11 38  1  0  0  0  0
 12 15  2  0  0  0  0
 12 39  1  0  0  0  0
 13 14  2  0  0  0  0
 13 15  1  0  0  0  0
 13 17  1  0  0  0  0
 14 40  1  0  0  0  0
 15 41  1  0  0  0  0
 16 17  1  0  0  0  0
 16 20  1  0  0  0  0
 16 42  1  0  0  0  0
 18 19  1  0  0  0  0
 18 21  1  0  0  0  0
 18 43  1  0  0  0  0
 18 44  1  0  0  0  0
 19 22  1  0  0  0  0
 19 45  1  0  0  0  0
 19 46  1  0  0  0  0
 20 47  1  0  0  0  0
 20 48  1  0  0  0  0
 20 49  1  0  0  0  0
 23 24  1  0  0  0  0
 23 25  2  0  0  0  0
 24 26  2  0  0  0  0
 25 27  1  0  0  0  0
 25 50  1  0  0  0  0
 26 28  1  0  0  0  0
 26 51  1  0  0  0  0
 27 28  2  0  0  0  0
 27 52  1  0  0  0  0
 28 53  1  0  0  0  0
M  END
> <PUBCHEM_COMPOUND_CID>
7846969

> <PUBCHEM_CONFORMER_RMSD>
1.2

> <PUBCHEM_CONFORMER_DIVERSEORDER>
1
93
141
8
87
136
102
86
29
143
69
6
75
82
72
96
25
15
66
112
36
53
18
74
107
33
104
54
20
51
21
73
88
42
108
135
97
109
119
39
98
68
84
65
115
114
3
17
127
134
120
67
61
28
100
48
23
56
70
105
47
111
149
126
95
125
26
99
140
7
45
5
85
35
148
94
79
139
4
78
31
101
83
40
22
133
122
32
60
110
121
10
144
14
146
142
52
27
55
76
103
117
77
11
58
9
138
49
106
113
64
92
16
37
89
128
43
19
34
71
41
44
12
129
24
132
90
38
57
91
46
124
13
118
50
116
123
80
63
131
81
59
137
62
2
147
30
130
145

> <PUBCHEM_MMFF94_PARTIAL_CHARGES>
32
1 -0.08
11 -0.15
12 -0.15
13 0.09
14 -0.15
15 -0.15
16 0.34
17 0.42
18 0.18
19 0.06
2 -0.43
21 0.2
22 0.66
23 0.04
24 0.23
25 -0.15
26 -0.15
27 -0.15
28 -0.15
3 -0.57
38 0.15
39 0.15
4 -0.57
40 0.15
41 0.15
5 -0.57
50 0.15
51 0.15
52 0.15
53 0.15
6 0.14
7 -0.14

> <PUBCHEM_EFFECTIVE_ROTOR_COUNT>
8

> <PUBCHEM_PHARMACOPHORE_FEATURES>
7
1 3 acceptor
1 4 acceptor
1 5 acceptor
4 6 8 9 10 hydrophobe
5 1 5 21 23 24 rings
6 23 24 25 26 27 28 rings
6 7 11 12 13 14 15 rings

> <PUBCHEM_HEAVY_ATOM_COUNT>
28

> <PUBCHEM_ATOM_DEF_STEREO_COUNT>
1

> <PUBCHEM_ATOM_UDEF_STEREO_COUNT>
0

> <PUBCHEM_BOND_DEF_STEREO_COUNT>
0

> <PUBCHEM_BOND_UDEF_STEREO_COUNT>
0

> <PUBCHEM_ISOTOPIC_ATOM_COUNT>
0

> <PUBCHEM_COMPONENT_COUNT>
1

> <PUBCHEM_CACTVS_TAUTO_COUNT>
4

> <PUBCHEM_CONFORMER_ID>
0077BC3900000001

> <PUBCHEM_MMFF94_ENERGY>
73.0897

> <PUBCHEM_FEATURE_SELFOVERLAP>
35.595

> <PUBCHEM_SHAPE_FINGERPRINT>
10316853 100 18270959025259965331
10764073 3 17754164594741401165
10864689 126 18272091647239122963
10951579 204 17630907073967721997
10981352 41 17485907659568620643
11211813 74 8502111626021234387
114674 6 18413111649752430098
12107183 9 17897994970771660273
12128747 34 18334582369239529809
12147406 95 17984732096796286003
12596602 18 17023466326719261627
12623949 98 18261105262202081935
12778500 126 17676756639545826345
12892183 10 18186526483828340241
13135754 10 16736061916049938112
13150687 139 17843662393775537764
13402501 40 18341897381222495058
13533116 47 18187646869291865729
1361 2 18336834087063772771
13673619 4 18335695104949875190
14211702 104 17771624547738890387
14251740 57 18411132498709955135
14251764 30 18338230578383822122
14863182 85 18269273461539961788
15420108 30 17259356470651052824
15664445 248 17917428705517180860
15927050 60 17403449677236833516
1813 80 17274830129521228101
1979834 28 18337958861567358320
20578428 11 15696575660297062983
20775530 9 18264774431567805702
21133410 38 17752490862981487559
21197605 99 17979355257303331179
21285901 2 18202012022667960548
21315759 227 18125171682515235510
22182313 1 18201177498069852429
22864921 267 18339341013115681339
22889206 1 17683531637271969793
23466295 7 17686612850893147946
23559900 14 18343585152840226637
2818148 4 17899679444176156936
3117164 225 18189887790143872801
329604 57 18265330806575247302
3421961 26 18409166605983486578
345986 75 17313386776749424546
3633792 109 18337967718950556311
3737641 26 18334857268414867138
394071 54 18340768152794768755
404807 14 17828755480823466515
4394409 98 15897023682282079358
46194498 28 18201720613621863348
5309563 4 18262519320228866270
5326457 24 17896902966778561175
6823239 73 18411703222664939338
86090 222 18341612585988281586
9555976 147 16877932868108908723

> <PUBCHEM_SHAPE_MULTIPOLES>
557.49
13.48
4.62
1.51
15.58
0.15
-0.01
10.23
2.54
-4.5
-1.23
-0.21
-0.73
2.99

> <PUBCHEM_SHAPE_SELFOVERLAP>
1182.115

> <PUBCHEM_SHAPE_VOLUME>
315.7

> <PUBCHEM_COORDINATE_TYPE>
2
5
10

$$$$

