17396542
  -OEChem-06241222572D

 42 43  0     1  0  0  0  0  0999 V2000
    6.6381   -0.2177    0.0000 O   0  0  0  0  0  0  0  0  0  0  0  0
    7.0539   -2.1740    0.0000 O   0  0  0  0  0  0  0  0  0  0  0  0
    7.1733    1.4296    0.0000 O   0  0  0  0  0  0  0  0  0  0  0  0
    2.5878    2.7250    0.0000 O   0  0  0  0  0  0  0  0  0  0  0  0
    3.9890    3.7431    0.0000 O   0  0  0  0  0  0  0  0  0  0  0  0
    8.7481   -1.8139    0.0000 N   0  0  0  0  0  0  0  0  0  0  0  0
    4.6701    0.4817    0.0000 N   0  0  0  0  0  0  0  0  0  0  0  0
    8.9560   -2.7920    0.0000 C   0  0  0  0  0  0  0  0  0  0  0  0
    8.6470   -3.7431    0.0000 C   0  0  0  0  0  0  0  0  0  0  0  0
    9.6251   -3.5352    0.0000 C   0  0  0  0  0  0  0  0  0  0  0  0
    7.7970   -1.5049    0.0000 C   0  0  0  0  0  0  0  0  0  0  0  0
    7.5891   -0.5267    0.0000 C   0  0  3  0  0  0  0  0  0  0  0  0
    8.3323    0.1424    0.0000 C   0  0  0  0  0  0  0  0  0  0  0  0
    5.4791    1.0695    0.0000 C   0  0  0  0  0  0  0  0  0  0  0  0
    5.1701    2.0205    0.0000 C   0  0  0  0  0  0  0  0  0  0  0  0
    4.1701    2.0205    0.0000 C   0  0  0  0  0  0  0  0  0  0  0  0
    3.8611    1.0695    0.0000 C   0  0  0  0  0  0  0  0  0  0  0  0
    6.4302    0.7604    0.0000 C   0  0  0  0  0  0  0  0  0  0  0  0
    5.7579    2.8295    0.0000 C   0  0  0  0  0  0  0  0  0  0  0  0
    2.9100    0.7604    0.0000 C   0  0  0  0  0  0  0  0  0  0  0  0
    3.5823    2.8295    0.0000 C   0  0  0  0  0  0  0  0  0  0  0  0
    2.0000    3.5340    0.0000 C   0  0  0  0  0  0  0  0  0  0  0  0
    8.3369   -2.7596    0.0000 H   0  0  0  0  0  0  0  0  0  0  0  0
    9.8574   -4.1100    0.0000 H   0  0  0  0  0  0  0  0  0  0  0  0
    8.0330   -3.6568    0.0000 H   0  0  0  0  0  0  0  0  0  0  0  0
    8.6686   -4.3627    0.0000 H   0  0  0  0  0  0  0  0  0  0  0  0
   10.1509   -3.2066    0.0000 H   0  0  0  0  0  0  0  0  0  0  0  0
    9.2088   -1.3990    0.0000 H   0  0  0  0  0  0  0  0  0  0  0  0
    7.4602    0.0797    0.0000 H   0  0  0  0  0  0  0  0  0  0  0  0
    8.7471   -0.3183    0.0000 H   0  0  0  0  0  0  0  0  0  0  0  0
    8.7930    0.5573    0.0000 H   0  0  0  0  0  0  0  0  0  0  0  0
    7.9174    0.6032    0.0000 H   0  0  0  0  0  0  0  0  0  0  0  0
    4.6701   -0.1383    0.0000 H   0  0  0  0  0  0  0  0  0  0  0  0
    6.2595    2.4651    0.0000 H   0  0  0  0  0  0  0  0  0  0  0  0
    6.1223    3.3311    0.0000 H   0  0  0  0  0  0  0  0  0  0  0  0
    5.2563    3.1940    0.0000 H   0  0  0  0  0  0  0  0  0  0  0  0
    2.7184    1.3501    0.0000 H   0  0  0  0  0  0  0  0  0  0  0  0
    2.3204    0.5689    0.0000 H   0  0  0  0  0  0  0  0  0  0  0  0
    3.1016    0.1708    0.0000 H   0  0  0  0  0  0  0  0  0  0  0  0
    2.5016    3.8984    0.0000 H   0  0  0  0  0  0  0  0  0  0  0  0
    1.6356    4.0356    0.0000 H   0  0  0  0  0  0  0  0  0  0  0  0
    1.4984    3.1696    0.0000 H   0  0  0  0  0  0  0  0  0  0  0  0
  1 12  1  0  0  0  0
  1 18  1  0  0  0  0
  2 11  2  0  0  0  0
  3 18  2  0  0  0  0
  4 21  1  0  0  0  0
  4 22  1  0  0  0  0
  5 21  2  0  0  0  0
  6  8  1  0  0  0  0
  6 11  1  0  0  0  0
  6 28  1  0  0  0  0
  7 14  1  0  0  0  0
  7 17  1  0  0  0  0
  7 33  1  0  0  0  0
  8  9  1  0  0  0  0
  8 10  1  0  0  0  0
  8 23  1  0  0  0  0
  9 10  1  0  0  0  0
  9 25  1  0  0  0  0
  9 26  1  0  0  0  0
 10 24  1  0  0  0  0
 10 27  1  0  0  0  0
 11 12  1  0  0  0  0
 12 13  1  0  0  0  0
 12 29  1  0  0  0  0
 13 30  1  0  0  0  0
 13 31  1  0  0  0  0
 13 32  1  0  0  0  0
 14 15  2  0  0  0  0
 14 18  1  0  0  0  0
 15 16  1  0  0  0  0
 15 19  1  0  0  0  0
 16 17  2  0  0  0  0
 16 21  1  0  0  0  0
 17 20  1  0  0  0  0
 19 34  1  0  0  0  0
 19 35  1  0  0  0  0
 19 36  1  0  0  0  0
 20 37  1  0  0  0  0
 20 38  1  0  0  0  0
 20 39  1  0  0  0  0
 22 40  1  0  0  0  0
 22 41  1  0  0  0  0
 22 42  1  0  0  0  0
M  END
> <PUBCHEM_COMPOUND_CID>
17396542

> <PUBCHEM_COMPOUND_CANONICALIZED>
1

> <PUBCHEM_CACTVS_COMPLEXITY>
463

> <PUBCHEM_CACTVS_HBOND_ACCEPTOR>
5

> <PUBCHEM_CACTVS_HBOND_DONOR>
2

> <PUBCHEM_CACTVS_ROTATABLE_BOND>
7

> <PUBCHEM_CACTVS_SUBSKEYS>
AAADceBzOAAAAAAAAAAAAAAAGAAAAWAAAAAAAAAAAAAAAAABgAAAHgAQAAAADDzhngYCiJLJlACoAwXwXAaCgCAnACAAmaH4TNgKJnrAtL2HEYhm1gHY6Ue8fwkegAAAAAAAAAAAAAAAAAAAAAAAAAAAAA==

> <PUBCHEM_IUPAC_OPENEYE_NAME>
O2-[2-(cyclopropylamino)-1-methyl-2-oxo-ethyl] O4-methyl 3,5-dimethyl-1H-pyrrole-2,4-dicarboxylate

> <PUBCHEM_IUPAC_CAS_NAME>
3,5-dimethyl-1H-pyrrole-2,4-dicarboxylic acid O2-[1-(cyclopropylamino)-1-oxopropan-2-yl] ester O4-methyl ester

> <PUBCHEM_IUPAC_NAME>
2-O-[1-(cyclopropylamino)-1-oxopropan-2-yl] 4-O-methyl 3,5-dimethyl-1H-pyrrole-2,4-dicarboxylate

> <PUBCHEM_IUPAC_SYSTEMATIC_NAME>
O2-[1-(cyclopropylamino)-1-oxidanylidene-propan-2-yl] O4-methyl 3,5-dimethyl-1H-pyrrole-2,4-dicarboxylate

> <PUBCHEM_IUPAC_TRADITIONAL_NAME>
3,5-dimethyl-1H-pyrrole-2,4-dicarboxylic acid O2-[2-(cyclopropylamino)-2-keto-1-methyl-ethyl] ester O4-methyl ester

> <PUBCHEM_IUPAC_INCHI>
InChI=1S/C15H20N2O5/c1-7-11(14(19)21-4)8(2)16-12(7)15(20)22-9(3)13(18)17-10-5-6-10/h9-10,16H,5-6H2,1-4H3,(H,17,18)

> <PUBCHEM_IUPAC_INCHIKEY>
PRXMOEUDWPTUFR-UHFFFAOYSA-N

> <PUBCHEM_XLOGP3_AA>
1.8

> <PUBCHEM_EXACT_MASS>
308.137222

> <PUBCHEM_MOLECULAR_FORMULA>
C15H20N2O5

> <PUBCHEM_MOLECULAR_WEIGHT>
308.3297

> <PUBCHEM_OPENEYE_CAN_SMILES>
CC1=C(NC(=C1C(=O)OC)C)C(=O)OC(C)C(=O)NC2CC2

> <PUBCHEM_OPENEYE_ISO_SMILES>
CC1=C(NC(=C1C(=O)OC)C)C(=O)OC(C)C(=O)NC2CC2

> <PUBCHEM_CACTVS_TPSA>
97.5

> <PUBCHEM_MONOISOTOPIC_WEIGHT>
308.137222

> <PUBCHEM_TOTAL_CHARGE>
0

> <PUBCHEM_HEAVY_ATOM_COUNT>
22

> <PUBCHEM_ATOM_DEF_STEREO_COUNT>
0

> <PUBCHEM_ATOM_UDEF_STEREO_COUNT>
1

> <PUBCHEM_BOND_DEF_STEREO_COUNT>
0

> <PUBCHEM_BOND_UDEF_STEREO_COUNT>
0

> <PUBCHEM_ISOTOPIC_ATOM_COUNT>
0

> <PUBCHEM_COMPONENT_COUNT>
1

> <PUBCHEM_CACTVS_TAUTO_COUNT>
20

> <PUBCHEM_COORDINATE_TYPE>
1
5
255

> <PUBCHEM_BONDANNOTATIONS>
12  13  3
14  15  8
15  16  8
16  17  8
7  14  8
7  17  8

$$$$

