6487
  -OEChem-06261201212D

 68 72  0     0  0  0  0  0  0999 V2000
    6.7071   -1.2071    0.0000 Si  0  0  0  0  0  0  0  0  0  0  0  0
    5.0000   -0.5000    0.0000 Si  0  0  0  0  0  0  0  0  0  0  0  0
    7.4142    0.5000    0.0000 Si  0  0  0  0  0  0  0  0  0  0  0  0
    5.7071    1.2071    0.0000 Si  0  0  0  0  0  0  0  0  0  0  0  0
    5.7071   -1.2071    0.0000 O   0  0  0  0  0  0  0  0  0  0  0  0
    7.4142   -0.5000    0.0000 O   0  0  0  0  0  0  0  0  0  0  0  0
    5.0000    0.5000    0.0000 O   0  0  0  0  0  0  0  0  0  0  0  0
    6.7071    1.2071    0.0000 O   0  0  0  0  0  0  0  0  0  0  0  0
    6.7071   -2.2071    0.0000 C   0  0  0  0  0  0  0  0  0  0  0  0
    4.0000   -0.5000    0.0000 C   0  0  0  0  0  0  0  0  0  0  0  0
    8.1213    1.2071    0.0000 C   0  0  0  0  0  0  0  0  0  0  0  0
    5.7071    2.2071    0.0000 C   0  0  0  0  0  0  0  0  0  0  0  0
    5.0000    1.9142    0.0000 C   0  0  0  0  0  0  0  0  0  0  0  0
    8.4142    0.5000    0.0000 C   0  0  0  0  0  0  0  0  0  0  0  0
    4.2929   -1.2071    0.0000 C   0  0  0  0  0  0  0  0  0  0  0  0
    7.4142   -1.9142    0.0000 C   0  0  0  0  0  0  0  0  0  0  0  0
    6.5731    2.7071    0.0000 C   0  0  0  0  0  0  0  0  0  0  0  0
    9.0872    0.9483    0.0000 C   0  0  0  0  0  0  0  0  0  0  0  0
    3.5000    0.3660    0.0000 C   0  0  0  0  0  0  0  0  0  0  0  0
    5.8411   -2.7071    0.0000 C   0  0  0  0  0  0  0  0  0  0  0  0
    4.8411    2.7071    0.0000 C   0  0  0  0  0  0  0  0  0  0  0  0
    7.8625    2.1730    0.0000 C   0  0  0  0  0  0  0  0  0  0  0  0
    3.5000   -1.3660    0.0000 C   0  0  0  0  0  0  0  0  0  0  0  0
    7.5731   -2.7071    0.0000 C   0  0  0  0  0  0  0  0  0  0  0  0
    6.5731    3.7071    0.0000 C   0  0  0  0  0  0  0  0  0  0  0  0
    9.7944    1.6554    0.0000 C   0  0  0  0  0  0  0  0  0  0  0  0
    2.5000    0.3660    0.0000 C   0  0  0  0  0  0  0  0  0  0  0  0
    5.8411   -3.7071    0.0000 C   0  0  0  0  0  0  0  0  0  0  0  0
    4.8411    3.7071    0.0000 C   0  0  0  0  0  0  0  0  0  0  0  0
    8.5696    2.8801    0.0000 C   0  0  0  0  0  0  0  0  0  0  0  0
    2.5000   -1.3660    0.0000 C   0  0  0  0  0  0  0  0  0  0  0  0
    7.5731   -3.7071    0.0000 C   0  0  0  0  0  0  0  0  0  0  0  0
    6.7071   -4.2071    0.0000 C   0  0  0  0  0  0  0  0  0  0  0  0
    2.0000   -0.5000    0.0000 C   0  0  0  0  0  0  0  0  0  0  0  0
    9.5355    2.6213    0.0000 C   0  0  0  0  0  0  0  0  0  0  0  0
    5.7071    4.2071    0.0000 C   0  0  0  0  0  0  0  0  0  0  0  0
    6.9758   -2.3526    0.0000 H   0  0  0  0  0  0  0  0  0  0  0  0
    7.8526   -2.3526    0.0000 H   0  0  0  0  0  0  0  0  0  0  0  0
    7.8526   -1.4758    0.0000 H   0  0  0  0  0  0  0  0  0  0  0  0
    3.8545   -0.7687    0.0000 H   0  0  0  0  0  0  0  0  0  0  0  0
    3.8545   -1.6455    0.0000 H   0  0  0  0  0  0  0  0  0  0  0  0
    4.7313   -1.6455    0.0000 H   0  0  0  0  0  0  0  0  0  0  0  0
    8.4142   -0.1200    0.0000 H   0  0  0  0  0  0  0  0  0  0  0  0
    9.0342    0.5000    0.0000 H   0  0  0  0  0  0  0  0  0  0  0  0
    8.4142    1.1200    0.0000 H   0  0  0  0  0  0  0  0  0  0  0  0
    5.4384    2.3526    0.0000 H   0  0  0  0  0  0  0  0  0  0  0  0
    4.5616    2.3526    0.0000 H   0  0  0  0  0  0  0  0  0  0  0  0
    4.5616    1.4758    0.0000 H   0  0  0  0  0  0  0  0  0  0  0  0
    5.3042   -2.3971    0.0000 H   0  0  0  0  0  0  0  0  0  0  0  0
    3.8100    0.9030    0.0000 H   0  0  0  0  0  0  0  0  0  0  0  0
    9.2477    0.3494    0.0000 H   0  0  0  0  0  0  0  0  0  0  0  0
    7.1101    2.3971    0.0000 H   0  0  0  0  0  0  0  0  0  0  0  0
    8.1101   -2.3971    0.0000 H   0  0  0  0  0  0  0  0  0  0  0  0
    3.8100   -1.9030    0.0000 H   0  0  0  0  0  0  0  0  0  0  0  0
    7.2636    2.3335    0.0000 H   0  0  0  0  0  0  0  0  0  0  0  0
    4.3042    2.3971    0.0000 H   0  0  0  0  0  0  0  0  0  0  0  0
    2.1900    0.9030    0.0000 H   0  0  0  0  0  0  0  0  0  0  0  0
    5.3042   -4.0171    0.0000 H   0  0  0  0  0  0  0  0  0  0  0  0
   10.3932    1.4949    0.0000 H   0  0  0  0  0  0  0  0  0  0  0  0
    7.1101    4.0171    0.0000 H   0  0  0  0  0  0  0  0  0  0  0  0
    2.1900   -1.9030    0.0000 H   0  0  0  0  0  0  0  0  0  0  0  0
    8.1101   -4.0171    0.0000 H   0  0  0  0  0  0  0  0  0  0  0  0
    8.4091    3.4790    0.0000 H   0  0  0  0  0  0  0  0  0  0  0  0
    4.3042    4.0171    0.0000 H   0  0  0  0  0  0  0  0  0  0  0  0
    6.7071   -4.8271    0.0000 H   0  0  0  0  0  0  0  0  0  0  0  0
    1.3800   -0.5000    0.0000 H   0  0  0  0  0  0  0  0  0  0  0  0
    9.9739    3.0597    0.0000 H   0  0  0  0  0  0  0  0  0  0  0  0
    5.7071    4.8271    0.0000 H   0  0  0  0  0  0  0  0  0  0  0  0
  1  5  1  0  0  0  0
  1  6  1  0  0  0  0
  1  9  1  0  0  0  0
  1 16  1  0  0  0  0
  2  5  1  0  0  0  0
  2  7  1  0  0  0  0
  2 10  1  0  0  0  0
  2 15  1  0  0  0  0
  3  6  1  0  0  0  0
  3  8  1  0  0  0  0
  3 11  1  0  0  0  0
  3 14  1  0  0  0  0
  4  7  1  0  0  0  0
  4  8  1  0  0  0  0
  4 12  1  0  0  0  0
  4 13  1  0  0  0  0
  9 20  2  0  0  0  0
  9 24  1  0  0  0  0
 10 19  2  0  0  0  0
 10 23  1  0  0  0  0
 11 18  2  0  0  0  0
 11 22  1  0  0  0  0
 12 17  2  0  0  0  0
 12 21  1  0  0  0  0
 13 46  1  0  0  0  0
 13 47  1  0  0  0  0
 13 48  1  0  0  0  0
 14 43  1  0  0  0  0
 14 44  1  0  0  0  0
 14 45  1  0  0  0  0
 15 40  1  0  0  0  0
 15 41  1  0  0  0  0
 15 42  1  0  0  0  0
 16 37  1  0  0  0  0
 16 38  1  0  0  0  0
 16 39  1  0  0  0  0
 17 25  1  0  0  0  0
 17 52  1  0  0  0  0
 18 26  1  0  0  0  0
 18 51  1  0  0  0  0
 19 27  1  0  0  0  0
 19 50  1  0  0  0  0
 20 28  1  0  0  0  0
 20 49  1  0  0  0  0
 21 29  2  0  0  0  0
 21 56  1  0  0  0  0
 22 30  2  0  0  0  0
 22 55  1  0  0  0  0
 23 31  2  0  0  0  0
 23 54  1  0  0  0  0
 24 32  2  0  0  0  0
 24 53  1  0  0  0  0
 25 36  2  0  0  0  0
 25 60  1  0  0  0  0
 26 35  2  0  0  0  0
 26 59  1  0  0  0  0
 27 34  2  0  0  0  0
 27 57  1  0  0  0  0
 28 33  2  0  0  0  0
 28 58  1  0  0  0  0
 29 36  1  0  0  0  0
 29 64  1  0  0  0  0
 30 35  1  0  0  0  0
 30 63  1  0  0  0  0
 31 34  1  0  0  0  0
 31 61  1  0  0  0  0
 32 33  1  0  0  0  0
 32 62  1  0  0  0  0
 33 65  1  0  0  0  0
 34 66  1  0  0  0  0
 35 67  1  0  0  0  0
 36 68  1  0  0  0  0
M  END
> <PUBCHEM_COMPOUND_CID>
6487

> <PUBCHEM_COMPOUND_CANONICALIZED>
1

> <PUBCHEM_CACTVS_COMPLEXITY>
576

> <PUBCHEM_CACTVS_HBOND_ACCEPTOR>
4

> <PUBCHEM_CACTVS_HBOND_DONOR>
0

> <PUBCHEM_CACTVS_ROTATABLE_BOND>
4

> <PUBCHEM_CACTVS_SUBSKEYS>
AAADcfB4OAwAAAAAAAAAAAAAAAAAAAAAAAAwYMGAAAASAAABVAAAGBAAAEAACACAMAByAIAAAAGAACBCAAACAAAgAAAIiAAAAIgIICKAERCAIAAggAAIiAcAAAAAAAAAAAAAAAAAAAAAAAAAAAAAAAAAAA==

> <PUBCHEM_IUPAC_OPENEYE_NAME>
2,4,6,8-tetramethyl-2,4,6,8-tetraphenyl-1,3,5,7,2,4,6,8-tetraoxatetrasilocane

> <PUBCHEM_IUPAC_CAS_NAME>
2,4,6,8-tetramethyl-2,4,6,8-tetraphenyl-1,3,5,7,2,4,6,8-tetraoxatetrasilocane

> <PUBCHEM_IUPAC_NAME>
2,4,6,8-tetramethyl-2,4,6,8-tetraphenyl-1,3,5,7,2,4,6,8-tetraoxatetrasilocane

> <PUBCHEM_IUPAC_SYSTEMATIC_NAME>
2,4,6,8-tetramethyl-2,4,6,8-tetraphenyl-1,3,5,7,2,4,6,8-tetraoxatetrasilocane

> <PUBCHEM_IUPAC_TRADITIONAL_NAME>
2,4,6,8-tetramethyl-2,4,6,8-tetraphenyl-1,3,5,7,2,4,6,8-tetraoxatetrasilocane

> <PUBCHEM_IUPAC_INCHI>
InChI=1S/C28H32O4Si4/c1-33(25-17-9-5-10-18-25)29-34(2,26-19-11-6-12-20-26)31-36(4,28-23-15-8-16-24-28)32-35(3,30-33)27-21-13-7-14-22-27/h5-24H,1-4H3

> <PUBCHEM_IUPAC_INCHIKEY>
IRVZFACCNZRHSJ-UHFFFAOYSA-N

> <PUBCHEM_EXACT_MASS>
544.137766

> <PUBCHEM_MOLECULAR_FORMULA>
C28H32O4Si4

> <PUBCHEM_MOLECULAR_WEIGHT>
544.89328

> <PUBCHEM_OPENEYE_CAN_SMILES>
C[Si]1(O[Si](O[Si](O[Si](O1)(C)C2=CC=CC=C2)(C)C3=CC=CC=C3)(C)C4=CC=CC=C4)C5=CC=CC=C5

> <PUBCHEM_OPENEYE_ISO_SMILES>
C[Si]1(O[Si](O[Si](O[Si](O1)(C)C2=CC=CC=C2)(C)C3=CC=CC=C3)(C)C4=CC=CC=C4)C5=CC=CC=C5

> <PUBCHEM_CACTVS_TPSA>
36.9

> <PUBCHEM_MONOISOTOPIC_WEIGHT>
544.137766

> <PUBCHEM_TOTAL_CHARGE>
0

> <PUBCHEM_HEAVY_ATOM_COUNT>
36

> <PUBCHEM_ATOM_DEF_STEREO_COUNT>
0

> <PUBCHEM_ATOM_UDEF_STEREO_COUNT>
0

> <PUBCHEM_BOND_DEF_STEREO_COUNT>
0

> <PUBCHEM_BOND_UDEF_STEREO_COUNT>
0

> <PUBCHEM_ISOTOPIC_ATOM_COUNT>
0

> <PUBCHEM_COMPONENT_COUNT>
1

> <PUBCHEM_CACTVS_TAUTO_COUNT>
1

> <PUBCHEM_COORDINATE_TYPE>
1
5
255

> <PUBCHEM_BONDANNOTATIONS>
10  19  8
10  23  8
11  18  8
11  22  8
12  17  8
12  21  8
17  25  8
18  26  8
19  27  8
20  28  8
21  29  8
22  30  8
23  31  8
24  32  8
25  36  8
26  35  8
27  34  8
28  33  8
29  36  8
30  35  8
31  34  8
32  33  8
9  20  8
9  24  8

$$$$

