13402
  -OEChem-06261209412D

 22 23  0     0  0  0  0  0  0999 V2000
    6.1279    0.0000    0.0000 C   0  0  0  0  0  0  0  0  0  0  0  0
    5.5443    0.8047    0.0000 C   0  0  0  0  0  0  0  0  0  0  0  0
    5.5443   -0.8047    0.0000 C   0  0  0  0  0  0  0  0  0  0  0  0
    4.5981    0.5000    0.0000 C   0  0  0  0  0  0  0  0  0  0  0  0
    4.5981   -0.5000    0.0000 C   0  0  0  0  0  0  0  0  0  0  0  0
    3.7320    1.0000    0.0000 C   0  0  0  0  0  0  0  0  0  0  0  0
    3.7320   -1.0000    0.0000 C   0  0  0  0  0  0  0  0  0  0  0  0
    2.8660    0.5000    0.0000 C   0  0  0  0  0  0  0  0  0  0  0  0
    2.8660   -0.5000    0.0000 C   0  0  0  0  0  0  0  0  0  0  0  0
    2.0000    1.0000    0.0000 C   0  0  0  0  0  0  0  0  0  0  0  0
    6.5888   -0.4147    0.0000 H   0  0  0  0  0  0  0  0  0  0  0  0
    6.5888    0.4147    0.0000 H   0  0  0  0  0  0  0  0  0  0  0  0
    6.0817    1.1140    0.0000 H   0  0  0  0  0  0  0  0  0  0  0  0
    5.2933    1.3716    0.0000 H   0  0  0  0  0  0  0  0  0  0  0  0
    5.2933   -1.3716    0.0000 H   0  0  0  0  0  0  0  0  0  0  0  0
    6.0817   -1.1140    0.0000 H   0  0  0  0  0  0  0  0  0  0  0  0
    3.7320    1.6200    0.0000 H   0  0  0  0  0  0  0  0  0  0  0  0
    3.7320   -1.6200    0.0000 H   0  0  0  0  0  0  0  0  0  0  0  0
    2.3291   -0.8100    0.0000 H   0  0  0  0  0  0  0  0  0  0  0  0
    2.3100    1.5369    0.0000 H   0  0  0  0  0  0  0  0  0  0  0  0
    1.4631    1.3100    0.0000 H   0  0  0  0  0  0  0  0  0  0  0  0
    1.6900    0.4631    0.0000 H   0  0  0  0  0  0  0  0  0  0  0  0
  1  2  1  0  0  0  0
  1  3  1  0  0  0  0
  1 11  1  0  0  0  0
  1 12  1  0  0  0  0
  2  4  1  0  0  0  0
  2 13  1  0  0  0  0
  2 14  1  0  0  0  0
  3  5  1  0  0  0  0
  3 15  1  0  0  0  0
  3 16  1  0  0  0  0
  4  5  2  0  0  0  0
  4  6  1  0  0  0  0
  5  7  1  0  0  0  0
  6  8  2  0  0  0  0
  6 17  1  0  0  0  0
  7  9  2  0  0  0  0
  7 18  1  0  0  0  0
  8  9  1  0  0  0  0
  8 10  1  0  0  0  0
  9 19  1  0  0  0  0
 10 20  1  0  0  0  0
 10 21  1  0  0  0  0
 10 22  1  0  0  0  0
M  END
> <PUBCHEM_COMPOUND_CID>
13402

> <PUBCHEM_COMPOUND_CANONICALIZED>
1

> <PUBCHEM_CACTVS_COMPLEXITY>
117

> <PUBCHEM_CACTVS_HBOND_ACCEPTOR>
0

> <PUBCHEM_CACTVS_HBOND_DONOR>
0

> <PUBCHEM_CACTVS_ROTATABLE_BOND>
0

> <PUBCHEM_CACTVS_SUBSKEYS>
AAADccBwAAAAAAAAAAAAAAAAAAAAAYAAAAAwAAAAAAAAAGABAAAAGAAAAAAADACAGAAyAIAAAACAAiBCAAACAAAgAAAIiAAAAIgIICKAERCAIAAggAAIiAcAgMAOwAACAAAQAACAAAQAACAAAAAACAAAAA==

> <PUBCHEM_IUPAC_OPENEYE_NAME>
5-methylindane

> <PUBCHEM_IUPAC_CAS_NAME>
5-methyl-2,3-dihydro-1H-indene

> <PUBCHEM_IUPAC_NAME>
5-methyl-2,3-dihydro-1H-indene

> <PUBCHEM_IUPAC_SYSTEMATIC_NAME>
5-methyl-2,3-dihydro-1H-indene

> <PUBCHEM_IUPAC_TRADITIONAL_NAME>
5-methylindane

> <PUBCHEM_IUPAC_INCHI>
InChI=1S/C10H12/c1-8-5-6-9-3-2-4-10(9)7-8/h5-7H,2-4H2,1H3

> <PUBCHEM_IUPAC_INCHIKEY>
RFXBCGVZEJEYGG-UHFFFAOYSA-N

> <PUBCHEM_XLOGP3_AA>
3.1

> <PUBCHEM_EXACT_MASS>
132.0939

> <PUBCHEM_MOLECULAR_FORMULA>
C10H12

> <PUBCHEM_MOLECULAR_WEIGHT>
132.20228

> <PUBCHEM_OPENEYE_CAN_SMILES>
CC1=CC2=C(CCC2)C=C1

> <PUBCHEM_OPENEYE_ISO_SMILES>
CC1=CC2=C(CCC2)C=C1

> <PUBCHEM_CACTVS_TPSA>
0

> <PUBCHEM_MONOISOTOPIC_WEIGHT>
132.0939

> <PUBCHEM_TOTAL_CHARGE>
0

> <PUBCHEM_HEAVY_ATOM_COUNT>
10

> <PUBCHEM_ATOM_DEF_STEREO_COUNT>
0

> <PUBCHEM_ATOM_UDEF_STEREO_COUNT>
0

> <PUBCHEM_BOND_DEF_STEREO_COUNT>
0

> <PUBCHEM_BOND_UDEF_STEREO_COUNT>
0

> <PUBCHEM_ISOTOPIC_ATOM_COUNT>
0

> <PUBCHEM_COMPONENT_COUNT>
1

> <PUBCHEM_CACTVS_TAUTO_COUNT>
1

> <PUBCHEM_COORDINATE_TYPE>
1
5
255

> <PUBCHEM_BONDANNOTATIONS>
4  5  8
4  6  8
5  7  8
6  8  8
7  9  8
8  9  8

$$$$

