17395828
  -OEChem-06241222522D

 50 52  0     0  0  0  0  0  0999 V2000
    3.7320   -0.5633    0.0000 O   0  0  0  0  0  0  0  0  0  0  0  0
    7.5013   -1.3461    0.0000 O   0  0  0  0  0  0  0  0  0  0  0  0
    2.0000   -3.5633    0.0000 O   0  0  0  0  0  0  0  0  0  0  0  0
    5.5443   -1.7585    0.0000 N   0  0  0  0  0  0  0  0  0  0  0  0
    3.7320   -3.5633    0.0000 N   0  0  0  0  0  0  0  0  0  0  0  0
    2.8660   -2.0633    0.0000 N   0  0  0  0  0  0  0  0  0  0  0  0
    7.1441    0.3487    0.0000 N   0  0  0  0  0  0  0  0  0  0  0  0
    5.5443   -3.3680    0.0000 N   0  0  0  0  0  0  0  0  0  0  0  0
    4.5981   -2.0633    0.0000 C   0  0  0  0  0  0  0  0  0  0  0  0
    4.5981   -3.0633    0.0000 C   0  0  0  0  0  0  0  0  0  0  0  0
    5.8550   -0.8080    0.0000 C   0  0  0  0  0  0  0  0  0  0  0  0
    3.7320   -1.5633    0.0000 C   0  0  0  0  0  0  0  0  0  0  0  0
    6.8335   -0.6018    0.0000 C   0  0  0  0  0  0  0  0  0  0  0  0
    6.1279   -2.5633    0.0000 C   0  0  0  0  0  0  0  0  0  0  0  0
    8.1226    0.5550    0.0000 C   0  0  0  0  0  0  0  0  0  0  0  0
    2.8660   -3.0633    0.0000 C   0  0  0  0  0  0  0  0  0  0  0  0
    8.4333    1.5055    0.0000 C   0  0  0  0  0  0  0  0  0  0  0  0
    3.7320   -4.5633    0.0000 C   0  0  0  0  0  0  0  0  0  0  0  0
    6.4763    1.0930    0.0000 C   0  0  0  0  0  0  0  0  0  0  0  0
    2.0000   -1.5633    0.0000 C   0  0  0  0  0  0  0  0  0  0  0  0
    9.4118    1.7117    0.0000 C   0  0  0  0  0  0  0  0  0  0  0  0
    7.7654    2.2498    0.0000 C   0  0  0  0  0  0  0  0  0  0  0  0
    9.0546    3.4065    0.0000 C   0  0  0  0  0  0  0  0  0  0  0  0
    9.7225    2.6622    0.0000 C   0  0  0  0  0  0  0  0  0  0  0  0
    8.0761    3.2003    0.0000 C   0  0  0  0  0  0  0  0  0  0  0  0
    9.3653    4.3570    0.0000 C   0  0  0  0  0  0  0  0  0  0  0  0
   10.3438    4.5633    0.0000 C   0  0  0  0  0  0  0  0  0  0  0  0
    5.8344   -0.1883    0.0000 H   0  0  0  0  0  0  0  0  0  0  0  0
    5.2411   -0.7207    0.0000 H   0  0  0  0  0  0  0  0  0  0  0  0
    8.1432   -0.0647    0.0000 H   0  0  0  0  0  0  0  0  0  0  0  0
    8.7364    0.4676    0.0000 H   0  0  0  0  0  0  0  0  0  0  0  0
    6.7479   -2.5633    0.0000 H   0  0  0  0  0  0  0  0  0  0  0  0
    3.1120   -4.5633    0.0000 H   0  0  0  0  0  0  0  0  0  0  0  0
    3.7320   -5.1833    0.0000 H   0  0  0  0  0  0  0  0  0  0  0  0
    4.3520   -4.5633    0.0000 H   0  0  0  0  0  0  0  0  0  0  0  0
    6.9378    1.5071    0.0000 H   0  0  0  0  0  0  0  0  0  0  0  0
    6.0622    1.5545    0.0000 H   0  0  0  0  0  0  0  0  0  0  0  0
    6.0148    0.6790    0.0000 H   0  0  0  0  0  0  0  0  0  0  0  0
    2.3100   -1.0263    0.0000 H   0  0  0  0  0  0  0  0  0  0  0  0
    1.4631   -1.2533    0.0000 H   0  0  0  0  0  0  0  0  0  0  0  0
    1.6900   -2.1002    0.0000 H   0  0  0  0  0  0  0  0  0  0  0  0
    9.8259    1.2502    0.0000 H   0  0  0  0  0  0  0  0  0  0  0  0
    7.1588    2.1219    0.0000 H   0  0  0  0  0  0  0  0  0  0  0  0
   10.3291    2.7901    0.0000 H   0  0  0  0  0  0  0  0  0  0  0  0
    7.6620    3.6618    0.0000 H   0  0  0  0  0  0  0  0  0  0  0  0
    9.3447    4.9767    0.0000 H   0  0  0  0  0  0  0  0  0  0  0  0
    8.7515    4.4444    0.0000 H   0  0  0  0  0  0  0  0  0  0  0  0
   10.4716    3.9566    0.0000 H   0  0  0  0  0  0  0  0  0  0  0  0
   10.9505    4.6911    0.0000 H   0  0  0  0  0  0  0  0  0  0  0  0
   10.2159    5.1699    0.0000 H   0  0  0  0  0  0  0  0  0  0  0  0
  1 12  2  0  0  0  0
  2 13  2  0  0  0  0
  3 16  2  0  0  0  0
  4  9  1  0  0  0  0
  4 11  1  0  0  0  0
  4 14  1  0  0  0  0
  5 10  1  0  0  0  0
  5 16  1  0  0  0  0
  5 18  1  0  0  0  0
  6 12  1  0  0  0  0
  6 16  1  0  0  0  0
  6 20  1  0  0  0  0
  7 13  1  0  0  0  0
  7 15  1  0  0  0  0
  7 19  1  0  0  0  0
  8 10  1  0  0  0  0
  8 14  2  0  0  0  0
  9 10  2  0  0  0  0
  9 12  1  0  0  0  0
 11 13  1  0  0  0  0
 11 28  1  0  0  0  0
 11 29  1  0  0  0  0
 14 32  1  0  0  0  0
 15 17  1  0  0  0  0
 15 30  1  0  0  0  0
 15 31  1  0  0  0  0
 17 21  2  0  0  0  0
 17 22  1  0  0  0  0
 18 33  1  0  0  0  0
 18 34  1  0  0  0  0
 18 35  1  0  0  0  0
 19 36  1  0  0  0  0
 19 37  1  0  0  0  0
 19 38  1  0  0  0  0
 20 39  1  0  0  0  0
 20 40  1  0  0  0  0
 20 41  1  0  0  0  0
 21 24  1  0  0  0  0
 21 42  1  0  0  0  0
 22 25  2  0  0  0  0
 22 43  1  0  0  0  0
 23 24  2  0  0  0  0
 23 25  1  0  0  0  0
 23 26  1  0  0  0  0
 24 44  1  0  0  0  0
 25 45  1  0  0  0  0
 26 27  1  0  0  0  0
 26 46  1  0  0  0  0
 26 47  1  0  0  0  0
 27 48  1  0  0  0  0
 27 49  1  0  0  0  0
 27 50  1  0  0  0  0
M  END
> <PUBCHEM_COMPOUND_CID>
17395828

> <PUBCHEM_COMPOUND_CANONICALIZED>
1

> <PUBCHEM_CACTVS_COMPLEXITY>
590

> <PUBCHEM_CACTVS_HBOND_ACCEPTOR>
4

> <PUBCHEM_CACTVS_HBOND_DONOR>
0

> <PUBCHEM_CACTVS_ROTATABLE_BOND>
5

> <PUBCHEM_CACTVS_SUBSKEYS>
AAADceB7sAAAAAAAAAAAAAAAAAAAAWAAAAA8QAAAAAAAAFgBwAAAHgAAAAAADAjBngQ3sJcMEACoAydzdACCgC03EKAJ2AGoVMiIaCrA2TGUIIhohyLIiGcQgMAOQAAAAAAAAACAAAAAAAAAAAAAAAAAAA==

> <PUBCHEM_IUPAC_OPENEYE_NAME>
2-(1,3-dimethyl-2,6-dioxo-purin-7-yl)-N-[(4-ethylphenyl)methyl]-N-methyl-acetamide

> <PUBCHEM_IUPAC_CAS_NAME>
2-(1,3-dimethyl-2,6-dioxo-7-purinyl)-N-[(4-ethylphenyl)methyl]-N-methylacetamide

> <PUBCHEM_IUPAC_NAME>
2-(1,3-dimethyl-2,6-dioxopurin-7-yl)-N-[(4-ethylphenyl)methyl]-N-methylacetamide

> <PUBCHEM_IUPAC_SYSTEMATIC_NAME>
2-[1,3-dimethyl-2,6-bis(oxidanylidene)purin-7-yl]-N-[(4-ethylphenyl)methyl]-N-methyl-ethanamide

> <PUBCHEM_IUPAC_TRADITIONAL_NAME>
2-(2,6-diketo-1,3-dimethyl-purin-7-yl)-N-(4-ethylbenzyl)-N-methyl-acetamide

> <PUBCHEM_IUPAC_INCHI>
InChI=1S/C19H23N5O3/c1-5-13-6-8-14(9-7-13)10-21(2)15(25)11-24-12-20-17-16(24)18(26)23(4)19(27)22(17)3/h6-9,12H,5,10-11H2,1-4H3

> <PUBCHEM_IUPAC_INCHIKEY>
SEQXUZLMVVHTFP-UHFFFAOYSA-N

> <PUBCHEM_XLOGP3>
1.5

> <PUBCHEM_EXACT_MASS>
369.18009

> <PUBCHEM_MOLECULAR_FORMULA>
C19H23N5O3

> <PUBCHEM_MOLECULAR_WEIGHT>
369.41762

> <PUBCHEM_OPENEYE_CAN_SMILES>
CCC1=CC=C(C=C1)CN(C)C(=O)CN2C=NC3=C2C(=O)N(C(=O)N3C)C

> <PUBCHEM_OPENEYE_ISO_SMILES>
CCC1=CC=C(C=C1)CN(C)C(=O)CN2C=NC3=C2C(=O)N(C(=O)N3C)C

> <PUBCHEM_CACTVS_TPSA>
78.8

> <PUBCHEM_MONOISOTOPIC_WEIGHT>
369.18009

> <PUBCHEM_TOTAL_CHARGE>
0

> <PUBCHEM_HEAVY_ATOM_COUNT>
27

> <PUBCHEM_ATOM_DEF_STEREO_COUNT>
0

> <PUBCHEM_ATOM_UDEF_STEREO_COUNT>
0

> <PUBCHEM_BOND_DEF_STEREO_COUNT>
0

> <PUBCHEM_BOND_UDEF_STEREO_COUNT>
0

> <PUBCHEM_ISOTOPIC_ATOM_COUNT>
0

> <PUBCHEM_COMPONENT_COUNT>
1

> <PUBCHEM_CACTVS_TAUTO_COUNT>
1

> <PUBCHEM_COORDINATE_TYPE>
1
5
255

> <PUBCHEM_BONDANNOTATIONS>
17  21  8
17  22  8
21  24  8
22  25  8
23  24  8
23  25  8
4  14  8
4  9  8
5  10  8
5  16  8
6  12  8
6  16  8
8  10  8
8  14  8
9  10  8
9  12  8

$$$$

