14028
  -OEChem-06241222413D

 27 26  0     0  0  0  0  0  0999 V2000
    0.3637    0.0746    0.6613 P   0  0  0  0  0  0  0  0  0  0  0  0
   -0.1759   -1.4482    0.5614 O   0  0  0  0  0  0  0  0  0  0  0  0
    1.8600   -0.0053    0.0489 O   0  0  0  0  0  0  0  0  0  0  0  0
    0.2895    0.6461    2.0482 O   0  0  0  0  0  0  0  0  0  0  0  0
   -2.5462    0.5210    0.7498 O   0  0  0  0  0  0  0  0  0  0  0  0
   -0.5805    0.9881   -0.5437 C   0  0  0  0  0  0  0  0  0  0  0  0
   -2.0551    1.0633   -0.2388 C   0  0  0  0  0  0  0  0  0  0  0  0
   -0.0791   -2.1764   -0.6496 C   0  0  0  0  0  0  0  0  0  0  0  0
    2.5623    1.1973   -0.2107 C   0  0  0  0  0  0  0  0  0  0  0  0
   -2.9044    1.8384   -1.2106 C   0  0  0  0  0  0  0  0  0  0  0  0
   -0.6601   -3.5589   -0.4416 C   0  0  0  0  0  0  0  0  0  0  0  0
    3.9260    0.8600   -0.7748 C   0  0  0  0  0  0  0  0  0  0  0  0
   -0.4521    0.5638   -1.5431 H   0  0  0  0  0  0  0  0  0  0  0  0
   -0.2142    2.0196   -0.5677 H   0  0  0  0  0  0  0  0  0  0  0  0
   -0.6364   -1.6640   -1.4377 H   0  0  0  0  0  0  0  0  0  0  0  0
    0.9705   -2.2526   -0.9485 H   0  0  0  0  0  0  0  0  0  0  0  0
    2.0118    1.8012   -0.9367 H   0  0  0  0  0  0  0  0  0  0  0  0
    2.6637    1.7643    0.7198 H   0  0  0  0  0  0  0  0  0  0  0  0
   -3.9477    1.8214   -0.8834 H   0  0  0  0  0  0  0  0  0  0  0  0
   -2.5634    2.8758   -1.2492 H   0  0  0  0  0  0  0  0  0  0  0  0
   -2.8374    1.3815   -2.2009 H   0  0  0  0  0  0  0  0  0  0  0  0
   -0.6011   -4.1501   -1.3597 H   0  0  0  0  0  0  0  0  0  0  0  0
   -0.1236   -4.0868    0.3538 H   0  0  0  0  0  0  0  0  0  0  0  0
   -1.7077   -3.4938   -0.1298 H   0  0  0  0  0  0  0  0  0  0  0  0
    4.4969    1.7682   -0.9871 H   0  0  0  0  0  0  0  0  0  0  0  0
    4.4928    0.2430   -0.0698 H   0  0  0  0  0  0  0  0  0  0  0  0
    3.8284    0.2796   -1.6983 H   0  0  0  0  0  0  0  0  0  0  0  0
  1  2  1  0  0  0  0
  1  3  1  0  0  0  0
  1  4  2  0  0  0  0
  1  6  1  0  0  0  0
  2  8  1  0  0  0  0
  3  9  1  0  0  0  0
  5  7  2  0  0  0  0
  6  7  1  0  0  0  0
  6 13  1  0  0  0  0
  6 14  1  0  0  0  0
  7 10  1  0  0  0  0
  8 11  1  0  0  0  0
  8 15  1  0  0  0  0
  8 16  1  0  0  0  0
  9 12  1  0  0  0  0
  9 17  1  0  0  0  0
  9 18  1  0  0  0  0
 10 19  1  0  0  0  0
 10 20  1  0  0  0  0
 10 21  1  0  0  0  0
 11 22  1  0  0  0  0
 11 23  1  0  0  0  0
 11 24  1  0  0  0  0
 12 25  1  0  0  0  0
 12 26  1  0  0  0  0
 12 27  1  0  0  0  0
M  END
> <PUBCHEM_COMPOUND_CID>
14028

> <PUBCHEM_CONFORMER_RMSD>
0.6

> <PUBCHEM_CONFORMER_DIVERSEORDER>
1
118
41
154
71
116
163
42
123
89
148
81
62
159
124
140
170
77
48
72
28
142
36
152
87
33
153
40
144
157
143
49
155
145
53
109
131
95
162
126
26
158
92
107
20
151
12
61
135
146
102
59
133
14
130
70
112
29
122
85
22
160
117
132
98
64
166
91
106
4
138
141
50
65
114
31
94
44
6
167
127
17
125
149
78
68
147
69
97
57
83
27
84
150
137
75
45
121
169
23
34
37
100
105
47
3
129
119
165
93
139
43
63
111
113
16
82
136
60
52
88
104
10
13
58
115
103
96
90
8
15
79
5
99
120
9
66
108
25
128
164
67
32
21
11
168
74
54
56
7
101
46
19
156
18
2
24
86
161
51
55
134
35
76
110
39
73
80
30
38

> <PUBCHEM_MMFF94_PARTIAL_CHARGES>
10
1 1.24
10 0.06
2 -0.55
3 -0.55
4 -0.7
5 -0.57
6 0.06
7 0.45
8 0.28
9 0.28

> <PUBCHEM_EFFECTIVE_ROTOR_COUNT>
6

> <PUBCHEM_PHARMACOPHORE_FEATURES>
2
1 4 acceptor
1 5 acceptor

> <PUBCHEM_HEAVY_ATOM_COUNT>
12

> <PUBCHEM_ATOM_DEF_STEREO_COUNT>
0

> <PUBCHEM_ATOM_UDEF_STEREO_COUNT>
0

> <PUBCHEM_BOND_DEF_STEREO_COUNT>
0

> <PUBCHEM_BOND_UDEF_STEREO_COUNT>
0

> <PUBCHEM_ISOTOPIC_ATOM_COUNT>
0

> <PUBCHEM_COMPONENT_COUNT>
1

> <PUBCHEM_CACTVS_TAUTO_COUNT>
3

> <PUBCHEM_CONFORMER_ID>
000036CC00000001

> <PUBCHEM_MMFF94_ENERGY>
3.3453

> <PUBCHEM_FEATURE_SELFOVERLAP>
10.149

> <PUBCHEM_SHAPE_FINGERPRINT>
1 1 18267028447252014022
12138202 97 18409442558038436894
12423570 1 11067744492684382890
14648413 74 17694505145056812797
14817 1 6500764479687887883
15502708 8 18194682566577376142
18186145 218 18186519921218317568
201361 129 17898836109783025409
20645477 56 18338509726000000292
20671657 53 17256813824056621279
20711985 344 18050864220850513170
20871998 184 18197481953114673807
21524375 3 18130515209635505868
21930827 45 18117010900480283144
23211744 41 17774434005351380969
23382010 3 18115323193092246004
23418878 81 18194692685335838855
23419403 2 5822829408240900546
23552423 10 17829895691296932773
3250762 1 17682126469357293776
68419 9 17770818678022500050
76951 1 17315382411691543586
81228 2 17906739102635935930

> <PUBCHEM_SHAPE_MULTIPOLES>
227.33
4.46
3.04
1.24
3.21
4.15
-0.47
-3.72
1.63
-1.66
1.04
-0.15
-0.31
0.19

> <PUBCHEM_SHAPE_SELFOVERLAP>
404.329

> <PUBCHEM_SHAPE_VOLUME>
147.6

> <PUBCHEM_COORDINATE_TYPE>
2
5
10

$$$$

