12645
  -OEChem-06261207122D

 42 42  0     0  0  0  0  0  0999 V2000
    5.4641    0.2500    0.0000 O   0  0  0  0  0  0  0  0  0  0  0  0
    5.4641    2.2500    0.0000 N   0  0  0  0  0  0  0  0  0  0  0  0
    3.7320    0.2500    0.0000 N   0  0  0  0  0  0  0  0  0  0  0  0
    4.5981    1.7500    0.0000 C   0  0  0  0  0  0  0  0  0  0  0  0
    5.4641    3.2500    0.0000 C   0  0  0  0  0  0  0  0  0  0  0  0
    6.3301    1.7500    0.0000 C   0  0  0  0  0  0  0  0  0  0  0  0
    3.7320   -0.7500    0.0000 C   0  0  0  0  0  0  0  0  0  0  0  0
    4.5981    0.7500    0.0000 C   0  0  0  0  0  0  0  0  0  0  0  0
    4.5981   -2.2500    0.0000 C   0  0  0  0  0  0  0  0  0  0  0  0
    2.8660   -1.2500    0.0000 C   0  0  0  0  0  0  0  0  0  0  0  0
    4.5981   -1.2500    0.0000 C   0  0  0  0  0  0  0  0  0  0  0  0
    7.1962    2.2500    0.0000 C   0  0  0  0  0  0  0  0  0  0  0  0
    6.3301    3.7500    0.0000 C   0  0  0  0  0  0  0  0  0  0  0  0
    5.4641   -2.7500    0.0000 C   0  0  0  0  0  0  0  0  0  0  0  0
    3.7320   -2.7500    0.0000 C   0  0  0  0  0  0  0  0  0  0  0  0
    2.8660   -2.2500    0.0000 C   0  0  0  0  0  0  0  0  0  0  0  0
    2.0000   -0.7500    0.0000 C   0  0  0  0  0  0  0  0  0  0  0  0
    5.4641   -3.7500    0.0000 C   0  0  0  0  0  0  0  0  0  0  0  0
    4.3860    2.3326    0.0000 H   0  0  0  0  0  0  0  0  0  0  0  0
    3.9875    1.6423    0.0000 H   0  0  0  0  0  0  0  0  0  0  0  0
    5.2520    3.8326    0.0000 H   0  0  0  0  0  0  0  0  0  0  0  0
    4.8535    3.1423    0.0000 H   0  0  0  0  0  0  0  0  0  0  0  0
    5.9316    1.2750    0.0000 H   0  0  0  0  0  0  0  0  0  0  0  0
    6.7287    1.2750    0.0000 H   0  0  0  0  0  0  0  0  0  0  0  0
    3.1951    0.5600    0.0000 H   0  0  0  0  0  0  0  0  0  0  0  0
    5.1350   -0.9400    0.0000 H   0  0  0  0  0  0  0  0  0  0  0  0
    7.5062    1.7131    0.0000 H   0  0  0  0  0  0  0  0  0  0  0  0
    7.7331    2.5600    0.0000 H   0  0  0  0  0  0  0  0  0  0  0  0
    6.8862    2.7869    0.0000 H   0  0  0  0  0  0  0  0  0  0  0  0
    6.6401    3.2131    0.0000 H   0  0  0  0  0  0  0  0  0  0  0  0
    6.8671    4.0600    0.0000 H   0  0  0  0  0  0  0  0  0  0  0  0
    6.0201    4.2869    0.0000 H   0  0  0  0  0  0  0  0  0  0  0  0
    6.0747   -2.8577    0.0000 H   0  0  0  0  0  0  0  0  0  0  0  0
    5.6762   -2.1674    0.0000 H   0  0  0  0  0  0  0  0  0  0  0  0
    3.7320   -3.3700    0.0000 H   0  0  0  0  0  0  0  0  0  0  0  0
    2.3291   -2.5600    0.0000 H   0  0  0  0  0  0  0  0  0  0  0  0
    2.3100   -0.2131    0.0000 H   0  0  0  0  0  0  0  0  0  0  0  0
    1.4631   -0.4400    0.0000 H   0  0  0  0  0  0  0  0  0  0  0  0
    1.6900   -1.2869    0.0000 H   0  0  0  0  0  0  0  0  0  0  0  0
    4.8441   -3.7500    0.0000 H   0  0  0  0  0  0  0  0  0  0  0  0
    5.4641   -4.3700    0.0000 H   0  0  0  0  0  0  0  0  0  0  0  0
    6.0841   -3.7500    0.0000 H   0  0  0  0  0  0  0  0  0  0  0  0
  1  8  2  0  0  0  0
  2  4  1  0  0  0  0
  2  5  1  0  0  0  0
  2  6  1  0  0  0  0
  3  7  1  0  0  0  0
  3  8  1  0  0  0  0
  3 25  1  0  0  0  0
  4  8  1  0  0  0  0
  4 19  1  0  0  0  0
  4 20  1  0  0  0  0
  5 13  1  0  0  0  0
  5 21  1  0  0  0  0
  5 22  1  0  0  0  0
  6 12  1  0  0  0  0
  6 23  1  0  0  0  0
  6 24  1  0  0  0  0
  7 10  2  0  0  0  0
  7 11  1  0  0  0  0
  9 11  2  0  0  0  0
  9 14  1  0  0  0  0
  9 15  1  0  0  0  0
 10 16  1  0  0  0  0
 10 17  1  0  0  0  0
 11 26  1  0  0  0  0
 12 27  1  0  0  0  0
 12 28  1  0  0  0  0
 12 29  1  0  0  0  0
 13 30  1  0  0  0  0
 13 31  1  0  0  0  0
 13 32  1  0  0  0  0
 14 18  1  0  0  0  0
 14 33  1  0  0  0  0
 14 34  1  0  0  0  0
 15 16  2  0  0  0  0
 15 35  1  0  0  0  0
 16 36  1  0  0  0  0
 17 37  1  0  0  0  0
 17 38  1  0  0  0  0
 17 39  1  0  0  0  0
 18 40  1  0  0  0  0
 18 41  1  0  0  0  0
 18 42  1  0  0  0  0
M  END
> <PUBCHEM_COMPOUND_CID>
12645

> <PUBCHEM_COMPOUND_CANONICALIZED>
1

> <PUBCHEM_CACTVS_COMPLEXITY>
251

> <PUBCHEM_CACTVS_HBOND_ACCEPTOR>
2

> <PUBCHEM_CACTVS_HBOND_DONOR>
1

> <PUBCHEM_CACTVS_ROTATABLE_BOND>
6

> <PUBCHEM_CACTVS_SUBSKEYS>
AAADceBzIAAAAAAAAAAAAAAAAAAAAAAAAAAwAAAAAAAAAAABAAAAHgAQAAAADAjBmAQywIPAAACIAiVSUACCAAAhAgAIiACIZIgIYCLAkbGUIAhglADIyAcQgMAOQAAAQAACAACAAACAAAQAAAAAAAAAAA==

> <PUBCHEM_IUPAC_OPENEYE_NAME>
2-(diethylamino)-N-(5-ethyl-2-methyl-phenyl)acetamide

> <PUBCHEM_IUPAC_CAS_NAME>
2-(diethylamino)-N-(5-ethyl-2-methylphenyl)acetamide

> <PUBCHEM_IUPAC_NAME>
2-(diethylamino)-N-(5-ethyl-2-methylphenyl)acetamide

> <PUBCHEM_IUPAC_SYSTEMATIC_NAME>
2-(diethylamino)-N-(5-ethyl-2-methyl-phenyl)ethanamide

> <PUBCHEM_IUPAC_TRADITIONAL_NAME>
2-(diethylamino)-N-(5-ethyl-2-methyl-phenyl)acetamide

> <PUBCHEM_IUPAC_INCHI>
InChI=1S/C15H24N2O/c1-5-13-9-8-12(4)14(10-13)16-15(18)11-17(6-2)7-3/h8-10H,5-7,11H2,1-4H3,(H,16,18)

> <PUBCHEM_IUPAC_INCHIKEY>
PJKWDXKXNIZWSI-UHFFFAOYSA-N

> <PUBCHEM_XLOGP3>
2.7

> <PUBCHEM_EXACT_MASS>
248.188863

> <PUBCHEM_MOLECULAR_FORMULA>
C15H24N2O

> <PUBCHEM_MOLECULAR_WEIGHT>
248.36386

> <PUBCHEM_OPENEYE_CAN_SMILES>
CCC1=CC(=C(C=C1)C)NC(=O)CN(CC)CC

> <PUBCHEM_OPENEYE_ISO_SMILES>
CCC1=CC(=C(C=C1)C)NC(=O)CN(CC)CC

> <PUBCHEM_CACTVS_TPSA>
32.3

> <PUBCHEM_MONOISOTOPIC_WEIGHT>
248.188863

> <PUBCHEM_TOTAL_CHARGE>
0

> <PUBCHEM_HEAVY_ATOM_COUNT>
18

> <PUBCHEM_ATOM_DEF_STEREO_COUNT>
0

> <PUBCHEM_ATOM_UDEF_STEREO_COUNT>
0

> <PUBCHEM_BOND_DEF_STEREO_COUNT>
0

> <PUBCHEM_BOND_UDEF_STEREO_COUNT>
0

> <PUBCHEM_ISOTOPIC_ATOM_COUNT>
0

> <PUBCHEM_COMPONENT_COUNT>
1

> <PUBCHEM_CACTVS_TAUTO_COUNT>
3

> <PUBCHEM_COORDINATE_TYPE>
1
5
255

> <PUBCHEM_BONDANNOTATIONS>
10  16  8
15  16  8
7  10  8
7  11  8
9  11  8
9  15  8

$$$$

