14060
  -OEChem-06241222412D

 33 32  0     0  0  0  0  0  0999 V2000
    5.4641    0.5950    0.0000 N   0  0  0  0  0  0  0  0  0  0  0  0
    7.1962    0.5950    0.0000 N   0  0  0  0  0  0  0  0  0  0  0  0
    6.3301   -0.9050    0.0000 N   0  0  0  0  0  0  0  0  0  0  0  0
    2.8660    0.0950    0.0000 C   0  0  0  0  0  0  0  0  0  0  0  0
    3.7320   -0.4050    0.0000 C   0  0  0  0  0  0  0  0  0  0  0  0
    4.5981    0.0950    0.0000 C   0  0  0  0  0  0  0  0  0  0  0  0
    2.0000    0.5950    0.0000 C   0  0  0  0  0  0  0  0  0  0  0  0
    2.3660   -0.7710    0.0000 C   0  0  0  0  0  0  0  0  0  0  0  0
    3.3660    0.9610    0.0000 C   0  0  0  0  0  0  0  0  0  0  0  0
    4.0981    0.9610    0.0000 C   0  0  0  0  0  0  0  0  0  0  0  0
    5.0981   -0.7710    0.0000 C   0  0  0  0  0  0  0  0  0  0  0  0
    6.3301    0.0950    0.0000 C   0  0  0  0  0  0  0  0  0  0  0  0
    3.3335   -0.8799    0.0000 H   0  0  0  0  0  0  0  0  0  0  0  0
    4.1306   -0.8799    0.0000 H   0  0  0  0  0  0  0  0  0  0  0  0
    2.3100    1.1319    0.0000 H   0  0  0  0  0  0  0  0  0  0  0  0
    1.4631    0.9050    0.0000 H   0  0  0  0  0  0  0  0  0  0  0  0
    1.6900    0.0581    0.0000 H   0  0  0  0  0  0  0  0  0  0  0  0
    1.8291   -0.4610    0.0000 H   0  0  0  0  0  0  0  0  0  0  0  0
    2.0560   -1.3080    0.0000 H   0  0  0  0  0  0  0  0  0  0  0  0
    2.9030   -1.0810    0.0000 H   0  0  0  0  0  0  0  0  0  0  0  0
    3.9030    0.6510    0.0000 H   0  0  0  0  0  0  0  0  0  0  0  0
    3.6760    1.4980    0.0000 H   0  0  0  0  0  0  0  0  0  0  0  0
    2.8291    1.2710    0.0000 H   0  0  0  0  0  0  0  0  0  0  0  0
    4.5611   -1.0810    0.0000 H   0  0  0  0  0  0  0  0  0  0  0  0
    5.4081   -1.3080    0.0000 H   0  0  0  0  0  0  0  0  0  0  0  0
    5.6350   -0.4610    0.0000 H   0  0  0  0  0  0  0  0  0  0  0  0
    4.6350    1.2710    0.0000 H   0  0  0  0  0  0  0  0  0  0  0  0
    3.7881    1.4980    0.0000 H   0  0  0  0  0  0  0  0  0  0  0  0
    3.5611    0.6510    0.0000 H   0  0  0  0  0  0  0  0  0  0  0  0
    7.7331    0.2850    0.0000 H   0  0  0  0  0  0  0  0  0  0  0  0
    7.1962    1.2150    0.0000 H   0  0  0  0  0  0  0  0  0  0  0  0
    6.8671   -1.2150    0.0000 H   0  0  0  0  0  0  0  0  0  0  0  0
    5.7932   -1.2150    0.0000 H   0  0  0  0  0  0  0  0  0  0  0  0
  1  6  1  0  0  0  0
  1 12  2  0  0  0  0
  2 12  1  0  0  0  0
  2 30  1  0  0  0  0
  2 31  1  0  0  0  0
  3 12  1  0  0  0  0
  3 32  1  0  0  0  0
  3 33  1  0  0  0  0
  4  5  1  0  0  0  0
  4  7  1  0  0  0  0
  4  8  1  0  0  0  0
  4  9  1  0  0  0  0
  5  6  1  0  0  0  0
  5 13  1  0  0  0  0
  5 14  1  0  0  0  0
  6 10  1  0  0  0  0
  6 11  1  0  0  0  0
  7 15  1  0  0  0  0
  7 16  1  0  0  0  0
  7 17  1  0  0  0  0
  8 18  1  0  0  0  0
  8 19  1  0  0  0  0
  8 20  1  0  0  0  0
  9 21  1  0  0  0  0
  9 22  1  0  0  0  0
  9 23  1  0  0  0  0
 10 27  1  0  0  0  0
 10 28  1  0  0  0  0
 10 29  1  0  0  0  0
 11 24  1  0  0  0  0
 11 25  1  0  0  0  0
 11 26  1  0  0  0  0
M  END
> <PUBCHEM_COMPOUND_CID>
14060

> <PUBCHEM_COMPOUND_CANONICALIZED>
1

> <PUBCHEM_CACTVS_COMPLEXITY>
171

> <PUBCHEM_CACTVS_HBOND_ACCEPTOR>
1

> <PUBCHEM_CACTVS_HBOND_DONOR>
2

> <PUBCHEM_CACTVS_ROTATABLE_BOND>
3

> <PUBCHEM_CACTVS_SUBSKEYS>
AAADceBzAAAAAAAAAAAAAAAAAAAAAAAAAAAAAAAAAAAAAAAAAAAAHAAQAAAADoiBAAADAAJAAAAgAAAAJAAAAAEAAAAAAAAAAAAAAAIAgAAAAAAAAAAAAAAAAAANAAAAAAAAAAAAAAAAAAAAAAAAAAAAAA==

> <PUBCHEM_IUPAC_OPENEYE_NAME>
2-(1,1,3,3-tetramethylbutyl)guanidine

> <PUBCHEM_IUPAC_CAS_NAME>
2-(2,4,4-trimethylpentan-2-yl)guanidine

> <PUBCHEM_IUPAC_NAME>
2-(2,4,4-trimethylpentan-2-yl)guanidine

> <PUBCHEM_IUPAC_SYSTEMATIC_NAME>
2-(2,4,4-trimethylpentan-2-yl)guanidine

> <PUBCHEM_IUPAC_TRADITIONAL_NAME>
2-(1,1,3,3-tetramethylbutyl)guanidine

> <PUBCHEM_IUPAC_INCHI>
InChI=1S/C9H21N3/c1-8(2,3)6-9(4,5)12-7(10)11/h6H2,1-5H3,(H4,10,11,12)

> <PUBCHEM_IUPAC_INCHIKEY>
BCPFWSWROVXGQA-UHFFFAOYSA-N

> <PUBCHEM_XLOGP3_AA>
1.4

> <PUBCHEM_EXACT_MASS>
171.173548

> <PUBCHEM_MOLECULAR_FORMULA>
C9H21N3

> <PUBCHEM_MOLECULAR_WEIGHT>
171.28314

> <PUBCHEM_OPENEYE_CAN_SMILES>
CC(C)(C)CC(C)(C)N=C(N)N

> <PUBCHEM_OPENEYE_ISO_SMILES>
CC(C)(C)CC(C)(C)N=C(N)N

> <PUBCHEM_CACTVS_TPSA>
64.4

> <PUBCHEM_MONOISOTOPIC_WEIGHT>
171.173548

> <PUBCHEM_TOTAL_CHARGE>
0

> <PUBCHEM_HEAVY_ATOM_COUNT>
12

> <PUBCHEM_ATOM_DEF_STEREO_COUNT>
0

> <PUBCHEM_ATOM_UDEF_STEREO_COUNT>
0

> <PUBCHEM_BOND_DEF_STEREO_COUNT>
0

> <PUBCHEM_BOND_UDEF_STEREO_COUNT>
0

> <PUBCHEM_ISOTOPIC_ATOM_COUNT>
0

> <PUBCHEM_COMPONENT_COUNT>
1

> <PUBCHEM_CACTVS_TAUTO_COUNT>
2

> <PUBCHEM_COORDINATE_TYPE>
1
5
255

$$$$

