17396234
  -OEChem-06241222553D

 77 79  0     1  0  0  0  0  0999 V2000
   -3.4052   -0.4603   -1.6830 S   0  0  0  0  0  0  0  0  0  0  0  0
    7.4079    1.2154   -0.5541 O   0  0  0  0  0  0  0  0  0  0  0  0
    1.3673   -2.6943   -0.8960 O   0  0  0  0  0  0  0  0  0  0  0  0
   -4.3356   -1.3685   -2.3178 O   0  0  0  0  0  0  0  0  0  0  0  0
   -2.5878    0.4401   -2.4667 O   0  0  0  0  0  0  0  0  0  0  0  0
    4.8707    0.3692    0.4272 N   0  0  0  0  0  0  0  0  0  0  0  0
   -2.3922   -1.3496   -0.6241 N   0  0  0  0  0  0  0  0  0  0  0  0
    1.9584   -1.7904    1.1673 N   0  0  0  0  0  0  0  0  0  0  0  0
    3.4682   -0.0162    0.2807 C   0  0  0  0  0  0  0  0  0  0  0  0
   -0.2547   -2.6722    0.8577 C   0  0  0  0  0  0  0  0  0  0  0  0
    5.7430   -0.5481   -0.3189 C   0  0  0  0  0  0  0  0  0  0  0  0
    5.0848    1.7440   -0.0464 C   0  0  0  0  0  0  0  0  0  0  0  0
    3.3173   -1.4393    0.8506 C   0  0  0  0  0  0  0  0  0  0  0  0
   -0.9195   -1.3881    1.3568 C   0  0  0  0  0  0  0  0  0  0  0  0
   -1.1352   -3.4157   -0.1482 C   0  0  0  0  0  0  0  0  0  0  0  0
    7.2154   -0.1494   -0.1636 C   0  0  2  0  0  0  0  0  0  0  0  0
    6.5553    2.1339    0.1374 C   0  0  2  0  0  0  0  0  0  0  0  0
   -1.4863   -0.5285    0.2288 C   0  0  0  0  0  0  0  0  0  0  0  0
   -1.6789   -2.5025   -1.2439 C   0  0  0  0  0  0  0  0  0  0  0  0
    2.6194    0.9933    1.0656 C   0  0  0  0  0  0  0  0  0  0  0  0
    3.0992    0.0329   -1.2093 C   0  0  0  0  0  0  0  0  0  0  0  0
    1.0943   -2.3911    0.2626 C   0  0  0  0  0  0  0  0  0  0  0  0
    7.7741   -0.4164    1.2335 C   0  0  0  0  0  0  0  0  0  0  0  0
    6.8241    3.5228   -0.4292 C   0  0  0  0  0  0  0  0  0  0  0  0
   -4.3052    0.5030   -0.5094 C   0  0  0  0  0  0  0  0  0  0  0  0
   -5.0773   -0.1288    0.4656 C   0  0  0  0  0  0  0  0  0  0  0  0
   -4.2443    1.8958   -0.5564 C   0  0  0  0  0  0  0  0  0  0  0  0
   -5.7886    0.6320    1.3933 C   0  0  0  0  0  0  0  0  0  0  0  0
   -4.9556    2.6567    0.3716 C   0  0  0  0  0  0  0  0  0  0  0  0
   -5.7277    2.0247    1.3463 C   0  0  0  0  0  0  0  0  0  0  0  0
   -5.1524   -1.6221    0.5281 C   0  0  0  0  0  0  0  0  0  0  0  0
   -3.4199    2.5866   -1.5967 C   0  0  0  0  0  0  0  0  0  0  0  0
   -6.6242   -0.0184    2.4468 C   0  0  0  0  0  0  0  0  0  0  0  0
   -4.9086    4.1495    0.3439 C   0  0  0  0  0  0  0  0  0  0  0  0
   -0.0821   -3.3354    1.7162 H   0  0  0  0  0  0  0  0  0  0  0  0
    5.6626   -1.5848    0.0202 H   0  0  0  0  0  0  0  0  0  0  0  0
    5.5416   -0.5243   -1.3951 H   0  0  0  0  0  0  0  0  0  0  0  0
    4.8590    1.8700   -1.1090 H   0  0  0  0  0  0  0  0  0  0  0  0
    4.5111    2.4796    0.5235 H   0  0  0  0  0  0  0  0  0  0  0  0
    3.8690   -1.5399    1.7940 H   0  0  0  0  0  0  0  0  0  0  0  0
    3.6921   -2.2031    0.1601 H   0  0  0  0  0  0  0  0  0  0  0  0
   -0.2542   -0.7764    1.9737 H   0  0  0  0  0  0  0  0  0  0  0  0
   -1.7525   -1.6769    2.0126 H   0  0  0  0  0  0  0  0  0  0  0  0
   -1.9865   -3.8463    0.3962 H   0  0  0  0  0  0  0  0  0  0  0  0
   -0.6006   -4.2595   -0.6007 H   0  0  0  0  0  0  0  0  0  0  0  0
    7.8064   -0.7471   -0.8680 H   0  0  0  0  0  0  0  0  0  0  0  0
    6.8217    2.1454    1.2009 H   0  0  0  0  0  0  0  0  0  0  0  0
   -2.0156    0.3113    0.6847 H   0  0  0  0  0  0  0  0  0  0  0  0
   -0.6741   -0.1202   -0.3840 H   0  0  0  0  0  0  0  0  0  0  0  0
   -0.8846   -2.1345   -1.9012 H   0  0  0  0  0  0  0  0  0  0  0  0
   -2.3782   -3.0824   -1.8558 H   0  0  0  0  0  0  0  0  0  0  0  0
    2.9807    1.1168    2.0936 H   0  0  0  0  0  0  0  0  0  0  0  0
    2.5631    1.9789    0.5913 H   0  0  0  0  0  0  0  0  0  0  0  0
    1.5742    0.6722    1.1314 H   0  0  0  0  0  0  0  0  0  0  0  0
    3.2272    1.0025   -1.6953 H   0  0  0  0  0  0  0  0  0  0  0  0
    3.5808   -0.7386   -1.8173 H   0  0  0  0  0  0  0  0  0  0  0  0
    2.0232   -0.1623   -1.3109 H   0  0  0  0  0  0  0  0  0  0  0  0
    1.6527   -1.6371    2.1233 H   0  0  0  0  0  0  0  0  0  0  0  0
    7.2032    0.0935    2.0153 H   0  0  0  0  0  0  0  0  0  0  0  0
    7.7635   -1.4880    1.4567 H   0  0  0  0  0  0  0  0  0  0  0  0
    8.8053   -0.0548    1.3055 H   0  0  0  0  0  0  0  0  0  0  0  0
    6.6256    3.5546   -1.5063 H   0  0  0  0  0  0  0  0  0  0  0  0
    6.2093    4.2814    0.0646 H   0  0  0  0  0  0  0  0  0  0  0  0
    7.8785    3.7893   -0.2976 H   0  0  0  0  0  0  0  0  0  0  0  0
   -6.2831    2.6178    2.0690 H   0  0  0  0  0  0  0  0  0  0  0  0
   -4.2156   -2.0530    0.8888 H   0  0  0  0  0  0  0  0  0  0  0  0
   -5.4403   -2.0672   -0.4251 H   0  0  0  0  0  0  0  0  0  0  0  0
   -5.9188   -1.9904    1.2154 H   0  0  0  0  0  0  0  0  0  0  0  0
   -3.5164    3.6759   -1.5700 H   0  0  0  0  0  0  0  0  0  0  0  0
   -3.7605    2.3400   -2.6077 H   0  0  0  0  0  0  0  0  0  0  0  0
   -2.3501    2.4203   -1.4336 H   0  0  0  0  0  0  0  0  0  0  0  0
   -7.4604   -0.5645    1.9982 H   0  0  0  0  0  0  0  0  0  0  0  0
   -6.0216   -0.6921    3.0650 H   0  0  0  0  0  0  0  0  0  0  0  0
   -7.0591    0.7224    3.1277 H   0  0  0  0  0  0  0  0  0  0  0  0
   -3.8837    4.5117    0.4767 H   0  0  0  0  0  0  0  0  0  0  0  0
   -5.5004    4.5840    1.1579 H   0  0  0  0  0  0  0  0  0  0  0  0
   -5.3289    4.5361   -0.5904 H   0  0  0  0  0  0  0  0  0  0  0  0
  1  4  2  0  0  0  0
  1  5  2  0  0  0  0
  1  7  1  0  0  0  0
  1 25  1  0  0  0  0
  2 16  1  0  0  0  0
  2 17  1  0  0  0  0
  3 22  2  0  0  0  0
  6  9  1  0  0  0  0
  6 11  1  0  0  0  0
  6 12  1  0  0  0  0
  7 18  1  0  0  0  0
  7 19  1  0  0  0  0
  8 13  1  0  0  0  0
  8 22  1  0  0  0  0
  8 58  1  0  0  0  0
  9 13  1  0  0  0  0
  9 20  1  0  0  0  0
  9 21  1  0  0  0  0
 10 14  1  0  0  0  0
 10 15  1  0  0  0  0
 10 22  1  0  0  0  0
 10 35  1  0  0  0  0
 11 16  1  0  0  0  0
 11 36  1  0  0  0  0
 11 37  1  0  0  0  0
 12 17  1  0  0  0  0
 12 38  1  0  0  0  0
 12 39  1  0  0  0  0
 13 40  1  0  0  0  0
 13 41  1  0  0  0  0
 14 18  1  0  0  0  0
 14 42  1  0  0  0  0
 14 43  1  0  0  0  0
 15 19  1  0  0  0  0
 15 44  1  0  0  0  0
 15 45  1  0  0  0  0
 16 23  1  0  0  0  0
 16 46  1  0  0  0  0
 17 24  1  0  0  0  0
 17 47  1  0  0  0  0
 18 48  1  0  0  0  0
 18 49  1  0  0  0  0
 19 50  1  0  0  0  0
 19 51  1  0  0  0  0
 20 52  1  0  0  0  0
 20 53  1  0  0  0  0
 20 54  1  0  0  0  0
 21 55  1  0  0  0  0
 21 56  1  0  0  0  0
 21 57  1  0  0  0  0
 23 59  1  0  0  0  0
 23 60  1  0  0  0  0
 23 61  1  0  0  0  0
 24 62  1  0  0  0  0
 24 63  1  0  0  0  0
 24 64  1  0  0  0  0
 25 26  2  0  0  0  0
 25 27  1  0  0  0  0
 26 28  1  0  0  0  0
 26 31  1  0  0  0  0
 27 29  2  0  0  0  0
 27 32  1  0  0  0  0
 28 30  2  0  0  0  0
 28 33  1  0  0  0  0
 29 30  1  0  0  0  0
 29 34  1  0  0  0  0
 30 65  1  0  0  0  0
 31 66  1  0  0  0  0
 31 67  1  0  0  0  0
 31 68  1  0  0  0  0
 32 69  1  0  0  0  0
 32 70  1  0  0  0  0
 32 71  1  0  0  0  0
 33 72  1  0  0  0  0
 33 73  1  0  0  0  0
 33 74  1  0  0  0  0
 34 75  1  0  0  0  0
 34 76  1  0  0  0  0
 34 77  1  0  0  0  0
M  END
> <PUBCHEM_COMPOUND_CID>
17396234

> <PUBCHEM_CONFORMER_RMSD>
1.4

> <PUBCHEM_CONFORMER_DIVERSEORDER>
1
55
33
13
29
67
34
15
53
20
23
49
2
17
56
27
43
65
25
21
57
45
5
40
61
26
19
36
42
4
9
52
50
60
6
7
63
64
30
39
22
31
32
58
3
48
14
28
66
11
59
46
16
38
62
37
10
44
8
35
41
18
54
24
51
47
12

> <PUBCHEM_MMFF94_PARTIAL_CHARGES>
30
1 1.45
10 0.06
11 0.27
12 0.27
13 0.3
16 0.28
17 0.28
18 0.36
19 0.36
2 -0.56
22 0.57
25 -0.01
26 -0.14
27 -0.14
28 -0.14
29 -0.14
3 -0.57
30 -0.15
31 0.14
32 0.14
33 0.14
34 0.14
4 -0.65
5 -0.65
58 0.37
6 -0.81
65 0.15
7 -0.85
8 -0.73
9 0.27

> <PUBCHEM_EFFECTIVE_ROTOR_COUNT>
9.4

> <PUBCHEM_PHARMACOPHORE_FEATURES>
10
1 2 acceptor
1 3 acceptor
1 4 acceptor
1 5 acceptor
1 6 cation
1 8 donor
3 9 20 21 hydrophobe
6 2 6 11 12 16 17 rings
6 25 26 27 28 29 30 rings
6 7 10 14 15 18 19 rings

> <PUBCHEM_HEAVY_ATOM_COUNT>
34

> <PUBCHEM_ATOM_DEF_STEREO_COUNT>
0

> <PUBCHEM_ATOM_UDEF_STEREO_COUNT>
2

> <PUBCHEM_BOND_DEF_STEREO_COUNT>
0

> <PUBCHEM_BOND_UDEF_STEREO_COUNT>
0

> <PUBCHEM_ISOTOPIC_ATOM_COUNT>
0

> <PUBCHEM_COMPONENT_COUNT>
1

> <PUBCHEM_CACTVS_TAUTO_COUNT>
2

> <PUBCHEM_CONFORMER_ID>
0109720A00000001

> <PUBCHEM_MMFF94_ENERGY>
98.0664

> <PUBCHEM_FEATURE_SELFOVERLAP>
50.761

> <PUBCHEM_SHAPE_FINGERPRINT>
10369192 42 18334288769369253751
10483366 6 8357988715335132707
10670039 82 18335430053685355099
10930396 42 16917064500037445469
11135609 201 18411136918294528739
11200772 48 5761659157588878539
12013929 29 18335414648229345992
12342043 65 13841983209665327143
12373685 5 14418408949727610278
12788726 201 17458904958789600328
13690498 29 17024044665841756839
13782708 43 12247685976427924936
13828863 39 18336826498367581621
13885169 86 18271239439664278484
13947947 140 9582931607068830145
14347329 18 18410584955067644456
14664723 55 18041833051526082089
14848178 5 9871456617648986119
14950920 106 17487903517642829715
15183329 4 18341061752685922486
15604295 49 18119530939226932640
16112460 7 18342736278704193100
16126227 98 18338792312929856416
16992727 255 18260546745193097208
18393751 57 18131062723930373771
18608769 82 18339638932752092907
19304152 47 17632299016316173085
19315092 285 12391210743274909823
20691028 202 18410295821848376600
21120745 212 18042979671135674695
21223535 225 17895204319786800936
21458453 9 15769192965440374604
21756936 100 18407763633853440031
23389318 12 8430306949479275306
24771750 20 17023460988576755447
249057 25 18194149440730002970
2838139 119 18411986858173567450
392239 28 16343692249519401411
4098825 35 18040148530897575614
4280585 95 8790884064681502383
437815 12 8862938355742166147
444735 79 18059561474444343171
50677037 204 18198634241702361268
5104073 3 17917432098166519179
563151 74 17346599698983880706
5937810 71 18198897008450175708
7970288 3 9223235139489605112

> <PUBCHEM_SHAPE_MULTIPOLES>
665.13
21.2
4.02
1.74
27.54
1.58
-0.34
15.42
4.82
-1.68
-0.27
-2.74
-0.2
-1.15

> <PUBCHEM_SHAPE_SELFOVERLAP>
1369.491

> <PUBCHEM_SHAPE_VOLUME>
387.5

> <PUBCHEM_COORDINATE_TYPE>
2
5
10

$$$$

