47205463
  -OEChem-06241222583D

 38 39  0     0  0  0  0  0  0999 V2000
    5.2940   -0.0238    0.5827 S   0  0  0  0  0  0  0  0  0  0  0  0
   -6.1311    0.9901    1.1033 S   0  0  0  0  0  0  0  0  0  0  0  0
    6.3435   -1.0221    0.5294 O   0  0  0  0  0  0  0  0  0  0  0  0
    5.4667    1.2031    1.3355 O   0  0  0  0  0  0  0  0  0  0  0  0
    0.1816   -1.2849   -1.0492 O   0  0  0  0  0  0  0  0  0  0  0  0
    2.4116    0.2787   -0.6066 N   0  0  0  0  0  0  0  0  0  0  0  0
   -1.1683    0.4960   -0.3295 N   0  0  0  0  0  0  0  0  0  0  0  0
    4.8500    0.3993   -1.0849 C   0  0  0  0  0  0  0  0  0  0  0  0
    3.8052   -0.8183    1.1384 C   0  0  0  0  0  0  0  0  0  0  0  0
    2.5726    0.0254    0.8356 C   0  0  0  0  0  0  0  0  0  0  0  0
    3.5030    1.1097   -1.1434 C   0  0  0  0  0  0  0  0  0  0  0  0
    1.1222    0.9286   -0.8566 C   0  0  0  0  0  0  0  0  0  0  0  0
    0.0109   -0.1029   -0.7682 C   0  0  0  0  0  0  0  0  0  0  0  0
   -2.4238   -0.1220   -0.1181 C   0  0  0  0  0  0  0  0  0  0  0  0
   -3.5081    0.6340    0.3272 C   0  0  0  0  0  0  0  0  0  0  0  0
   -2.5764   -1.4882   -0.3553 C   0  0  0  0  0  0  0  0  0  0  0  0
   -4.7451    0.0239    0.5354 C   0  0  0  0  0  0  0  0  0  0  0  0
   -3.8134   -2.0981   -0.1471 C   0  0  0  0  0  0  0  0  0  0  0  0
   -4.8977   -1.3421    0.2983 C   0  0  0  0  0  0  0  0  0  0  0  0
   -6.2975    2.2134   -0.2272 C   0  0  0  0  0  0  0  0  0  0  0  0
    3.7469   -1.7929    0.6422 H   0  0  0  0  0  0  0  0  0  0  0  0
    3.9087   -0.9840    2.2152 H   0  0  0  0  0  0  0  0  0  0  0  0
    5.6450    1.0389   -1.4802 H   0  0  0  0  0  0  0  0  0  0  0  0
    4.8314   -0.5290   -1.6659 H   0  0  0  0  0  0  0  0  0  0  0  0
    1.7075   -0.5245    1.2250 H   0  0  0  0  0  0  0  0  0  0  0  0
    2.6225    0.9721    1.3897 H   0  0  0  0  0  0  0  0  0  0  0  0
    3.3067    1.3378   -2.1984 H   0  0  0  0  0  0  0  0  0  0  0  0
    3.5556    2.0683   -0.6110 H   0  0  0  0  0  0  0  0  0  0  0  0
    1.0718    1.3165   -1.8825 H   0  0  0  0  0  0  0  0  0  0  0  0
    0.9572    1.7729   -0.1765 H   0  0  0  0  0  0  0  0  0  0  0  0
   -1.1490    1.4955   -0.1390 H   0  0  0  0  0  0  0  0  0  0  0  0
   -3.3774    1.6975    0.5164 H   0  0  0  0  0  0  0  0  0  0  0  0
   -1.7862   -2.1394   -0.7006 H   0  0  0  0  0  0  0  0  0  0  0  0
   -3.9336   -3.1618   -0.3316 H   0  0  0  0  0  0  0  0  0  0  0  0
   -5.8541   -1.8351    0.4545 H   0  0  0  0  0  0  0  0  0  0  0  0
   -5.4271    2.8738   -0.2578 H   0  0  0  0  0  0  0  0  0  0  0  0
   -6.4088    1.7126   -1.1927 H   0  0  0  0  0  0  0  0  0  0  0  0
   -7.1873    2.8216   -0.0444 H   0  0  0  0  0  0  0  0  0  0  0  0
  1  3  2  0  0  0  0
  1  4  2  0  0  0  0
  1  8  1  0  0  0  0
  1  9  1  0  0  0  0
  2 17  1  0  0  0  0
  2 20  1  0  0  0  0
  5 13  2  0  0  0  0
  6 10  1  0  0  0  0
  6 11  1  0  0  0  0
  6 12  1  0  0  0  0
  7 13  1  0  0  0  0
  7 14  1  0  0  0  0
  7 31  1  0  0  0  0
  8 11  1  0  0  0  0
  8 23  1  0  0  0  0
  8 24  1  0  0  0  0
  9 10  1  0  0  0  0
  9 21  1  0  0  0  0
  9 22  1  0  0  0  0
 10 25  1  0  0  0  0
 10 26  1  0  0  0  0
 11 27  1  0  0  0  0
 11 28  1  0  0  0  0
 12 13  1  0  0  0  0
 12 29  1  0  0  0  0
 12 30  1  0  0  0  0
 14 15  2  0  0  0  0
 14 16  1  0  0  0  0
 15 17  1  0  0  0  0
 15 32  1  0  0  0  0
 16 18  2  0  0  0  0
 16 33  1  0  0  0  0
 17 19  2  0  0  0  0
 18 19  1  0  0  0  0
 18 34  1  0  0  0  0
 19 35  1  0  0  0  0
 20 36  1  0  0  0  0
 20 37  1  0  0  0  0
 20 38  1  0  0  0  0
M  END
> <PUBCHEM_COMPOUND_CID>
47205463

> <PUBCHEM_CONFORMER_RMSD>
0.8

> <PUBCHEM_CONFORMER_DIVERSEORDER>
3
83
19
112
95
107
66
37
10
88
64
23
50
96
76
75
109
46
38
20
9
73
89
104
35
27
61
41
93
48
79
24
85
17
110
52
74
92
105
97
44
86
36
21
55
81
99
54
22
40
90
32
49
78
16
45
103
26
25
11
82
12
57
1
47
60
87
63
43
102
31
68
101
28
56
4
111
77
100
71
6
69
2
8
106
98
108
30
59
70
34
67
42
94
65
5
58
15
51
39
14
84
18
80
29
7
13
53
33
91
62
72

> <PUBCHEM_MMFF94_PARTIAL_CHARGES>
25
1 1.09
10 0.27
11 0.27
12 0.33
13 0.57
14 0.12
15 -0.15
16 -0.15
17 0.1
18 -0.15
19 -0.15
2 -0.33
20 0.23
3 -0.65
31 0.37
32 0.15
33 0.15
34 0.15
35 0.15
4 -0.65
5 -0.57
6 -0.81
7 -0.55
8 0.11
9 0.11

> <PUBCHEM_EFFECTIVE_ROTOR_COUNT>
6

> <PUBCHEM_PHARMACOPHORE_FEATURES>
8
1 20 hydrophobe
1 3 acceptor
1 4 acceptor
1 5 acceptor
1 6 cation
1 7 donor
6 1 6 8 9 10 11 rings
6 14 15 16 17 18 19 rings

> <PUBCHEM_HEAVY_ATOM_COUNT>
20

> <PUBCHEM_ATOM_DEF_STEREO_COUNT>
0

> <PUBCHEM_ATOM_UDEF_STEREO_COUNT>
0

> <PUBCHEM_BOND_DEF_STEREO_COUNT>
0

> <PUBCHEM_BOND_UDEF_STEREO_COUNT>
0

> <PUBCHEM_ISOTOPIC_ATOM_COUNT>
0

> <PUBCHEM_COMPONENT_COUNT>
1

> <PUBCHEM_CACTVS_TAUTO_COUNT>
2

> <PUBCHEM_CONFORMER_ID>
02D04C5700000003

> <PUBCHEM_MMFF94_ENERGY>
45.2275

> <PUBCHEM_FEATURE_SELFOVERLAP>
40.612

> <PUBCHEM_SHAPE_MULTIPOLES>
391.72
17.23
1.71
1.18
1.24
0.15
-0.1
-3.57
-5.06
-2.46
0.15
1
-0.14
-0.79

> <PUBCHEM_SHAPE_SELFOVERLAP>
780.22

> <PUBCHEM_SHAPE_VOLUME>
232.2

> <PUBCHEM_COORDINATE_TYPE>
2
5
10

$$$$

