11787
  -OEChem-06261206072D

 19 20  0     0  0  0  0  0  0999 V2000
    2.8660    2.1550    0.0000 Cl  0  0  0  0  0  0  0  0  0  0  0  0
    2.8660   -1.8450    0.0000 O   0  0  0  0  0  0  0  0  0  0  0  0
    3.7320   -0.3450    0.0000 C   0  0  0  0  0  0  0  0  0  0  0  0
    3.7320    0.6550    0.0000 C   0  0  0  0  0  0  0  0  0  0  0  0
    2.8660   -0.8450    0.0000 C   0  0  0  0  0  0  0  0  0  0  0  0
    2.8660    1.1550    0.0000 C   0  0  0  0  0  0  0  0  0  0  0  0
    4.6260   -0.8797    0.0000 C   0  0  0  0  0  0  0  0  0  0  0  0
    4.6260    1.1897    0.0000 C   0  0  0  0  0  0  0  0  0  0  0  0
    2.0000   -0.3450    0.0000 C   0  0  0  0  0  0  0  0  0  0  0  0
    2.0000    0.6550    0.0000 C   0  0  0  0  0  0  0  0  0  0  0  0
    5.5321   -0.3658    0.0000 C   0  0  0  0  0  0  0  0  0  0  0  0
    5.5321    0.6758    0.0000 C   0  0  0  0  0  0  0  0  0  0  0  0
    4.6188   -1.4996    0.0000 H   0  0  0  0  0  0  0  0  0  0  0  0
    4.6188    1.8096    0.0000 H   0  0  0  0  0  0  0  0  0  0  0  0
    1.4631   -0.6550    0.0000 H   0  0  0  0  0  0  0  0  0  0  0  0
    1.4631    0.9650    0.0000 H   0  0  0  0  0  0  0  0  0  0  0  0
    6.0678   -0.6779    0.0000 H   0  0  0  0  0  0  0  0  0  0  0  0
    6.0678    0.9879    0.0000 H   0  0  0  0  0  0  0  0  0  0  0  0
    2.3291   -2.1550    0.0000 H   0  0  0  0  0  0  0  0  0  0  0  0
  1  6  1  0  0  0  0
  2  5  1  0  0  0  0
  2 19  1  0  0  0  0
  3  4  1  0  0  0  0
  3  5  1  0  0  0  0
  3  7  2  0  0  0  0
  4  6  1  0  0  0  0
  4  8  2  0  0  0  0
  5  9  2  0  0  0  0
  6 10  2  0  0  0  0
  7 11  1  0  0  0  0
  7 13  1  0  0  0  0
  8 12  1  0  0  0  0
  8 14  1  0  0  0  0
  9 10  1  0  0  0  0
  9 15  1  0  0  0  0
 10 16  1  0  0  0  0
 11 12  2  0  0  0  0
 11 17  1  0  0  0  0
 12 18  1  0  0  0  0
M  END
> <PUBCHEM_COMPOUND_CID>
11787

> <PUBCHEM_COMPOUND_CANONICALIZED>
1

> <PUBCHEM_CACTVS_COMPLEXITY>
160

> <PUBCHEM_CACTVS_HBOND_ACCEPTOR>
1

> <PUBCHEM_CACTVS_HBOND_DONOR>
1

> <PUBCHEM_CACTVS_ROTATABLE_BOND>
0

> <PUBCHEM_CACTVS_SUBSKEYS>
AAADcYBwIAAEAAAAAAAAAAAAAAAAAAAAAAAwYAAAAAAAAADBUAAAGgIACAAADAaAmCAwBsAAAgCAAiBCAAACAAAgJQAIiAAGCogIJiKDExKAcAAkwBEImAeAwLAOgCABIAAZAAAAQAJAADIAAAAAAAAAAA==

> <PUBCHEM_IUPAC_OPENEYE_NAME>
4-chloronaphthalen-1-ol

> <PUBCHEM_IUPAC_CAS_NAME>
4-chloro-1-naphthalenol

> <PUBCHEM_IUPAC_NAME>
4-chloronaphthalen-1-ol

> <PUBCHEM_IUPAC_SYSTEMATIC_NAME>
4-chloranylnaphthalen-1-ol

> <PUBCHEM_IUPAC_TRADITIONAL_NAME>
4-chloro-1-naphthol

> <PUBCHEM_IUPAC_INCHI>
InChI=1S/C10H7ClO/c11-9-5-6-10(12)8-4-2-1-3-7(8)9/h1-6,12H

> <PUBCHEM_IUPAC_INCHIKEY>
LVSPDZAGCBEQAV-UHFFFAOYSA-N

> <PUBCHEM_XLOGP3>
3.9

> <PUBCHEM_EXACT_MASS>
178.018543

> <PUBCHEM_MOLECULAR_FORMULA>
C10H7ClO

> <PUBCHEM_MOLECULAR_WEIGHT>
178.61498

> <PUBCHEM_OPENEYE_CAN_SMILES>
C1=CC=C2C(=C1)C(=CC=C2Cl)O

> <PUBCHEM_OPENEYE_ISO_SMILES>
C1=CC=C2C(=C1)C(=CC=C2Cl)O

> <PUBCHEM_CACTVS_TPSA>
20.2

> <PUBCHEM_MONOISOTOPIC_WEIGHT>
178.018543

> <PUBCHEM_TOTAL_CHARGE>
0

> <PUBCHEM_HEAVY_ATOM_COUNT>
12

> <PUBCHEM_ATOM_DEF_STEREO_COUNT>
0

> <PUBCHEM_ATOM_UDEF_STEREO_COUNT>
0

> <PUBCHEM_BOND_DEF_STEREO_COUNT>
0

> <PUBCHEM_BOND_UDEF_STEREO_COUNT>
0

> <PUBCHEM_ISOTOPIC_ATOM_COUNT>
0

> <PUBCHEM_COMPONENT_COUNT>
1

> <PUBCHEM_CACTVS_TAUTO_COUNT>
2

> <PUBCHEM_COORDINATE_TYPE>
1
5
255

> <PUBCHEM_BONDANNOTATIONS>
11  12  8
3  4  8
3  5  8
3  7  8
4  6  8
4  8  8
5  9  8
6  10  8
7  11  8
8  12  8
9  10  8

$$$$

