6376
  -OEChem-06261201163D

  8  7  0     0  0  0  0  0  0999 V2000
    1.6319   -0.9407   -0.1581 Cl  0  0  0  0  0  0  0  0  0  0  0  0
   -1.6275   -0.9479   -0.1581 Cl  0  0  0  0  0  0  0  0  0  0  0  0
   -0.0002    0.0911    0.5081 Si  0  0  0  0  0  0  0  0  0  0  0  0
   -0.0042    1.7975   -0.1919 C   0  0  0  0  0  0  0  0  0  0  0  0
   -0.0001    0.0794    1.9929 H   0  0  0  0  0  0  0  0  0  0  0  0
    0.8773    2.3600    0.1315 H   0  0  0  0  0  0  0  0  0  0  0  0
   -0.0042    1.7822   -1.2864 H   0  0  0  0  0  0  0  0  0  0  0  0
   -0.8882    2.3559    0.1316 H   0  0  0  0  0  0  0  0  0  0  0  0
  1  3  1  0  0  0  0
  2  3  1  0  0  0  0
  3  4  1  0  0  0  0
  3  5  1  0  0  0  0
  4  6  1  0  0  0  0
  4  7  1  0  0  0  0
  4  8  1  0  0  0  0
M  END
> <PUBCHEM_COMPOUND_CID>
6376

> <PUBCHEM_CONFORMER_RMSD>
0.4

> <PUBCHEM_CONFORMER_DIVERSEORDER>
1

> <PUBCHEM_MMFF94_PARTIAL_CHARGES>
5
1 -0.37
2 -0.37
3 1.02
4 -0.08
5 -0.2

> <PUBCHEM_EFFECTIVE_ROTOR_COUNT>
0

> <PUBCHEM_PHARMACOPHORE_FEATURES>
0

> <PUBCHEM_HEAVY_ATOM_COUNT>
4

> <PUBCHEM_ATOM_DEF_STEREO_COUNT>
0

> <PUBCHEM_ATOM_UDEF_STEREO_COUNT>
0

> <PUBCHEM_BOND_DEF_STEREO_COUNT>
0

> <PUBCHEM_BOND_UDEF_STEREO_COUNT>
0

> <PUBCHEM_ISOTOPIC_ATOM_COUNT>
0

> <PUBCHEM_COMPONENT_COUNT>
1

> <PUBCHEM_CACTVS_TAUTO_COUNT>
1

> <PUBCHEM_CONFORMER_ID>
000018E800000001

> <PUBCHEM_MMFF94_ENERGY>
0.1207

> <PUBCHEM_FEATURE_SELFOVERLAP>
0

> <PUBCHEM_SHAPE_FINGERPRINT>
139733 1 9943807789501773666
16714656 1 18122054579260003153
20096714 4 17118052724979186033
21040471 1 17402335265955323072
29004967 10 18340485564910072122
5943 1 5362573187987046505

> <PUBCHEM_SHAPE_MULTIPOLES>
104.27
1.9
1.78
0.86
0
0.82
0.16
-1.06
-0.21
0
-0.23
0
0.02
0

> <PUBCHEM_SHAPE_SELFOVERLAP>
148.99

> <PUBCHEM_SHAPE_VOLUME>
80.3

> <PUBCHEM_COORDINATE_TYPE>
2
5
10

$$$$

