853893
  -OEChem-06241222463D

 40 42  0     1  0  0  0  0  0999 V2000
    1.3482   -2.1047   -0.9491 O   0  0  0  0  0  0  0  0  0  0  0  0
    2.5637   -0.2471   -0.2798 N   0  0  0  0  0  0  0  0  0  0  0  0
    0.2012   -0.1677   -0.3874 N   0  0  0  0  0  0  0  0  0  0  0  0
    2.6708    1.1962    0.0487 C   0  0  1  0  0  0  0  0  0  0  0  0
    3.7006    1.4498    1.1625 C   0  0  0  0  0  0  0  0  0  0  0  0
    5.0324    0.7505    0.9182 C   0  0  0  0  0  0  0  0  0  0  0  0
    4.8047   -0.7371    0.6868 C   0  0  0  0  0  0  0  0  0  0  0  0
    3.8312   -0.9683   -0.4607 C   0  0  0  0  0  0  0  0  0  0  0  0
    2.9634    2.0195   -1.2076 C   0  0  0  0  0  0  0  0  0  0  0  0
    1.3550   -0.9335   -0.5617 C   0  0  0  0  0  0  0  0  0  0  0  0
   -1.1065   -0.6350   -0.1031 C   0  0  0  0  0  0  0  0  0  0  0  0
   -2.2059    0.2362   -0.0415 C   0  0  0  0  0  0  0  0  0  0  0  0
   -3.4885   -0.2878    0.2475 C   0  0  0  0  0  0  0  0  0  0  0  0
   -1.2679   -2.0028    0.1173 C   0  0  0  0  0  0  0  0  0  0  0  0
   -2.0612    1.6158   -0.2609 C   0  0  0  0  0  0  0  0  0  0  0  0
   -3.6330   -1.6674    0.4665 C   0  0  0  0  0  0  0  0  0  0  0  0
   -2.5290   -2.5181    0.4017 C   0  0  0  0  0  0  0  0  0  0  0  0
   -4.5883    0.5833    0.3093 C   0  0  0  0  0  0  0  0  0  0  0  0
   -3.1650    2.4667   -0.1956 C   0  0  0  0  0  0  0  0  0  0  0  0
   -4.4260    1.9515    0.0890 C   0  0  0  0  0  0  0  0  0  0  0  0
    1.7205    1.5537    0.4539 H   0  0  0  0  0  0  0  0  0  0  0  0
    3.2866    1.0774    2.1092 H   0  0  0  0  0  0  0  0  0  0  0  0
    3.8629    2.5258    1.2954 H   0  0  0  0  0  0  0  0  0  0  0  0
    5.6898    0.8943    1.7830 H   0  0  0  0  0  0  0  0  0  0  0  0
    5.5401    1.1921    0.0531 H   0  0  0  0  0  0  0  0  0  0  0  0
    5.7587   -1.2305    0.4704 H   0  0  0  0  0  0  0  0  0  0  0  0
    4.4055   -1.1908    1.6024 H   0  0  0  0  0  0  0  0  0  0  0  0
    4.2670   -0.6254   -1.4063 H   0  0  0  0  0  0  0  0  0  0  0  0
    3.6530   -2.0433   -0.5662 H   0  0  0  0  0  0  0  0  0  0  0  0
    2.1843    1.8624   -1.9615 H   0  0  0  0  0  0  0  0  0  0  0  0
    2.9937    3.0886   -0.9726 H   0  0  0  0  0  0  0  0  0  0  0  0
    3.9200    1.7469   -1.6638 H   0  0  0  0  0  0  0  0  0  0  0  0
    0.3020    0.8292   -0.5097 H   0  0  0  0  0  0  0  0  0  0  0  0
   -0.4569   -2.7186    0.1316 H   0  0  0  0  0  0  0  0  0  0  0  0
   -1.1093    2.0841   -0.4888 H   0  0  0  0  0  0  0  0  0  0  0  0
   -4.6089   -2.0921    0.6927 H   0  0  0  0  0  0  0  0  0  0  0  0
   -2.6542   -3.5816    0.5842 H   0  0  0  0  0  0  0  0  0  0  0  0
   -5.5833    0.2026    0.5300 H   0  0  0  0  0  0  0  0  0  0  0  0
   -3.0403    3.5320   -0.3674 H   0  0  0  0  0  0  0  0  0  0  0  0
   -5.2848    2.6144    0.1396 H   0  0  0  0  0  0  0  0  0  0  0  0
  1 10  2  0  0  0  0
  2  4  1  0  0  0  0
  2  8  1  0  0  0  0
  2 10  1  0  0  0  0
  3 10  1  0  0  0  0
  3 11  1  0  0  0  0
  3 33  1  0  0  0  0
  4  5  1  0  0  0  0
  4  9  1  0  0  0  0
  4 21  1  0  0  0  0
  5  6  1  0  0  0  0
  5 22  1  0  0  0  0
  5 23  1  0  0  0  0
  6  7  1  0  0  0  0
  6 24  1  0  0  0  0
  6 25  1  0  0  0  0
  7  8  1  0  0  0  0
  7 26  1  0  0  0  0
  7 27  1  0  0  0  0
  8 28  1  0  0  0  0
  8 29  1  0  0  0  0
  9 30  1  0  0  0  0
  9 31  1  0  0  0  0
  9 32  1  0  0  0  0
 11 12  1  0  0  0  0
 11 14  2  0  0  0  0
 12 13  1  0  0  0  0
 12 15  2  0  0  0  0
 13 16  1  0  0  0  0
 13 18  2  0  0  0  0
 14 17  1  0  0  0  0
 14 34  1  0  0  0  0
 15 19  1  0  0  0  0
 15 35  1  0  0  0  0
 16 17  2  0  0  0  0
 16 36  1  0  0  0  0
 17 37  1  0  0  0  0
 18 20  1  0  0  0  0
 18 38  1  0  0  0  0
 19 20  2  0  0  0  0
 19 39  1  0  0  0  0
 20 40  1  0  0  0  0
M  END
> <PUBCHEM_COMPOUND_CID>
853893

> <PUBCHEM_CONFORMER_RMSD>
0.6

> <PUBCHEM_CONFORMER_DIVERSEORDER>
1
22
18
55
3
39
56
42
29
32
38
44
49
23
45
35
10
50
57
47
31
34
30
17
37
41
48
5
16
26
20
12
52
8
54
33
15
25
53
24
19
2
40
6
13
14
9
51
36
43
11
7
28
4
21
46
27

> <PUBCHEM_MMFF94_PARTIAL_CHARGES>
22
1 -0.57
10 0.69
11 0.12
14 -0.15
15 -0.15
16 -0.15
17 -0.15
18 -0.15
19 -0.15
2 -0.66
20 -0.15
3 -0.55
33 0.37
34 0.15
35 0.15
36 0.15
37 0.15
38 0.15
39 0.15
4 0.3
40 0.15
8 0.3

> <PUBCHEM_EFFECTIVE_ROTOR_COUNT>
4.2

> <PUBCHEM_PHARMACOPHORE_FEATURES>
5
1 1 acceptor
1 3 donor
6 11 12 13 14 16 17 rings
6 12 13 15 18 19 20 rings
6 2 4 5 6 7 8 rings

> <PUBCHEM_HEAVY_ATOM_COUNT>
20

> <PUBCHEM_ATOM_DEF_STEREO_COUNT>
1

> <PUBCHEM_ATOM_UDEF_STEREO_COUNT>
0

> <PUBCHEM_BOND_DEF_STEREO_COUNT>
0

> <PUBCHEM_BOND_UDEF_STEREO_COUNT>
0

> <PUBCHEM_ISOTOPIC_ATOM_COUNT>
0

> <PUBCHEM_COMPONENT_COUNT>
1

> <PUBCHEM_CACTVS_TAUTO_COUNT>
2

> <PUBCHEM_CONFORMER_ID>
000D078500000001

> <PUBCHEM_MMFF94_ENERGY>
58.2645

> <PUBCHEM_FEATURE_SELFOVERLAP>
25.398

> <PUBCHEM_SHAPE_FINGERPRINT>
10319926 262 18338248115378870682
10608611 8 18408319999352477575
10616163 171 18268138760717336165
10646746 165 18410009944619247534
11132069 177 18411979148406551805
11370993 70 18408606993330566955
11405975 8 18413389834704635354
11595378 159 17560529502635146849
12107183 9 18055645164001576002
12173636 292 18410575111039479559
12251169 10 18272373066195726342
12403259 118 18338522945460632648
12403259 415 18113897126906386672
12403260 363 18339930328775962599
12507560 40 18334860489835524466
12596602 18 16917064417346026400
12633257 1 18131073744494337844
12670546 56 18342187651949291058
12788726 201 17412450343545708554
13402501 40 18334861640412552001
13583140 156 17967538921982372562
13675066 3 18259987054992771694
14178342 30 18201716241223966411
14289901 80 18271803458911276946
14341114 176 18413386549233897904
14420673 8 18198908204960482770
14866123 147 16532278594030366294
15042514 8 18270393877026924539
15196674 1 18410292497374468488
15256400 18 18411982494164976372
15375358 24 18261110802709678895
17492 89 18200026231812314058
1813 80 16558750144064603422
18186145 218 18116135843991166863
19050596 39 18271805687819812366
20510252 161 18408597072604895091
20645477 56 18339356470027362039
20645477 70 17022895800691651462
20715895 44 18268152148574087397
21065198 57 18410293601529294746
21065199 12 18409731721038476618
21859007 373 17271740682446593141
23227448 37 18335423452383691127
23402539 116 18411146822684227055
23557571 272 18263625321573007375
23559900 14 18336256955281015966
312423 11 17703499987695528212
351380 180 18409452500587085329
3545911 37 18336261327209154044
4214541 1 18411982463968317080
5104073 3 18410572872855266082
5924683 9 18262807254936701191
6328613 192 18341887490503604124
7064713 232 18340200881888638685
7097593 13 18059869401655144194
7808743 9 17902794055659793608
90316 7 17560809843882975069
9709674 26 18335976545266433503
9981440 41 18341613741798811795

> <PUBCHEM_SHAPE_MULTIPOLES>
395.76
10.75
2.7
0.92
4.97
0.01
-0.01
-2.97
-2.49
-1.88
0.18
0.83
-0.13
0.51

> <PUBCHEM_SHAPE_SELFOVERLAP>
847.493

> <PUBCHEM_SHAPE_VOLUME>
218.2

> <PUBCHEM_COORDINATE_TYPE>
2
5
10

$$$$

