7254
  -OEChem-06261201573D

 15 15  0     0  0  0  0  0  0999 V2000
    1.9321   -2.0137   -0.0005 Cl  0  0  0  0  0  0  0  0  0  0  0  0
   -3.2346   -0.5059    0.0001 Cl  0  0  0  0  0  0  0  0  0  0  0  0
    1.1401    0.5935    0.0001 C   0  0  0  0  0  0  0  0  0  0  0  0
    0.7584   -0.7481    0.0002 C   0  0  0  0  0  0  0  0  0  0  0  0
    0.1690    1.5949   -0.0002 C   0  0  0  0  0  0  0  0  0  0  0  0
    2.5783    0.9998    0.0003 C   0  0  0  0  0  0  0  0  0  0  0  0
   -0.5943   -1.0883    0.0003 C   0  0  0  0  0  0  0  0  0  0  0  0
   -1.1837    1.2547   -0.0003 C   0  0  0  0  0  0  0  0  0  0  0  0
   -1.5654   -0.0869    0.0000 C   0  0  0  0  0  0  0  0  0  0  0  0
    0.4475    2.6454   -0.0004 H   0  0  0  0  0  0  0  0  0  0  0  0
    3.0849    0.6215    0.8943 H   0  0  0  0  0  0  0  0  0  0  0  0
    3.0850    0.6222   -0.8940 H   0  0  0  0  0  0  0  0  0  0  0  0
    2.6947    2.0892    0.0008 H   0  0  0  0  0  0  0  0  0  0  0  0
   -0.8939   -2.1342    0.0005 H   0  0  0  0  0  0  0  0  0  0  0  0
   -1.9294    2.0455   -0.0006 H   0  0  0  0  0  0  0  0  0  0  0  0
  1  4  1  0  0  0  0
  2  9  1  0  0  0  0
  3  4  2  0  0  0  0
  3  5  1  0  0  0  0
  3  6  1  0  0  0  0
  4  7  1  0  0  0  0
  5  8  2  0  0  0  0
  5 10  1  0  0  0  0
  6 11  1  0  0  0  0
  6 12  1  0  0  0  0
  6 13  1  0  0  0  0
  7  9  2  0  0  0  0
  7 14  1  0  0  0  0
  8  9  1  0  0  0  0
  8 15  1  0  0  0  0
M  END
> <PUBCHEM_COMPOUND_CID>
7254

> <PUBCHEM_CONFORMER_RMSD>
0.4

> <PUBCHEM_CONFORMER_DIVERSEORDER>
1

> <PUBCHEM_MMFF94_PARTIAL_CHARGES>
12
1 -0.18
10 0.15
14 0.15
15 0.15
2 -0.18
3 -0.14
4 0.18
5 -0.15
6 0.14
7 -0.15
8 -0.15
9 0.18

> <PUBCHEM_EFFECTIVE_ROTOR_COUNT>
0

> <PUBCHEM_PHARMACOPHORE_FEATURES>
1
6 3 4 5 7 8 9 rings

> <PUBCHEM_HEAVY_ATOM_COUNT>
9

> <PUBCHEM_ATOM_DEF_STEREO_COUNT>
0

> <PUBCHEM_ATOM_UDEF_STEREO_COUNT>
0

> <PUBCHEM_BOND_DEF_STEREO_COUNT>
0

> <PUBCHEM_BOND_UDEF_STEREO_COUNT>
0

> <PUBCHEM_ISOTOPIC_ATOM_COUNT>
0

> <PUBCHEM_COMPONENT_COUNT>
1

> <PUBCHEM_CACTVS_TAUTO_COUNT>
1

> <PUBCHEM_CONFORMER_ID>
00001C5600000001

> <PUBCHEM_MMFF94_ENERGY>
18.9454

> <PUBCHEM_FEATURE_SELFOVERLAP>
5.074

> <PUBCHEM_SHAPE_FINGERPRINT>
12423570 1 7948267663562887738
14128692 85 18265607878418896342
161256 15 18410007779818580422
16945 1 18338798909857145957
18185500 45 18336268929290731495
193761 8 18194402422866719972
20645477 70 18410017654571425519
20871998 22 18190172588734219054
21040471 1 17762336907633927744
23235685 24 18340492140510244269
23402655 69 18337126635283363509
23552423 10 18271519917970842206
241688 4 18196933498628462456
2748010 2 18339365295752723277
29004967 10 18343015554292969193
5084963 1 18188495807742229675
528862 383 18342183253955488298

> <PUBCHEM_SHAPE_MULTIPOLES>
188.96
3.7
1.92
0.63
1.58
0.28
0
0.61
0
-0.97
0
0.01
0.01
0

> <PUBCHEM_SHAPE_SELFOVERLAP>
372.727

> <PUBCHEM_SHAPE_VOLUME>
110.2

> <PUBCHEM_COORDINATE_TYPE>
2
5
10

$$$$

