7837
  -OEChem-06261202223D

 20 20  0     1  0  0  0  0  0999 V2000
   -3.4687    0.1951   -0.3978 O   0  0  0  0  0  0  0  0  0  0  0  0
   -0.0638   -0.0335    0.2345 O   0  0  0  0  0  0  0  0  0  0  0  0
    1.2818    1.7928   -0.1553 O   0  0  0  0  0  0  0  0  0  0  0  0
   -2.4405   -0.0259    0.5568 C   0  0  1  0  0  0  0  0  0  0  0  0
   -2.8162   -1.0811   -0.4176 C   0  0  0  0  0  0  0  0  0  0  0  0
   -1.2122    0.8191    0.2942 C   0  0  0  0  0  0  0  0  0  0  0  0
    1.1231    0.5906    0.0023 C   0  0  0  0  0  0  0  0  0  0  0  0
    2.2185   -0.4181   -0.0338 C   0  0  0  0  0  0  0  0  0  0  0  0
    1.9158   -1.8708    0.1719 C   0  0  0  0  0  0  0  0  0  0  0  0
    3.4623    0.0318   -0.2551 C   0  0  0  0  0  0  0  0  0  0  0  0
   -2.6943   -0.1494    1.5988 H   0  0  0  0  0  0  0  0  0  0  0  0
   -2.1585   -1.2922   -1.2507 H   0  0  0  0  0  0  0  0  0  0  0  0
   -3.3783   -1.9334   -0.0584 H   0  0  0  0  0  0  0  0  0  0  0  0
   -1.0929    1.5406    1.1101 H   0  0  0  0  0  0  0  0  0  0  0  0
   -1.3084    1.3623   -0.6538 H   0  0  0  0  0  0  0  0  0  0  0  0
    1.4654   -2.0342    1.1564 H   0  0  0  0  0  0  0  0  0  0  0  0
    1.2234   -2.2319   -0.5958 H   0  0  0  0  0  0  0  0  0  0  0  0
    2.8188   -2.4885    0.1168 H   0  0  0  0  0  0  0  0  0  0  0  0
    4.3033   -0.6537   -0.2930 H   0  0  0  0  0  0  0  0  0  0  0  0
    3.6872    1.0825   -0.4047 H   0  0  0  0  0  0  0  0  0  0  0  0
  1  4  1  0  0  0  0
  1  5  1  0  0  0  0
  2  6  1  0  0  0  0
  2  7  1  0  0  0  0
  3  7  2  0  0  0  0
  4  5  1  0  0  0  0
  4  6  1  0  0  0  0
  4 11  1  0  0  0  0
  5 12  1  0  0  0  0
  5 13  1  0  0  0  0
  6 14  1  0  0  0  0
  6 15  1  0  0  0  0
  7  8  1  0  0  0  0
  8  9  1  0  0  0  0
  8 10  2  0  0  0  0
  9 16  1  0  0  0  0
  9 17  1  0  0  0  0
  9 18  1  0  0  0  0
 10 19  1  0  0  0  0
 10 20  1  0  0  0  0
M  END
> <PUBCHEM_COMPOUND_CID>
7837

> <PUBCHEM_CONFORMER_RMSD>
0.6

> <PUBCHEM_CONFORMER_DIVERSEORDER>
1
53
36
25
12
52
38
31
57
58
23
40
50
17
4
20
39
47
21
30
49
28
43
37
13
51
5
54
8
32
22
48
35
56
44
24
10
45
27
34
19
11
18
15
55
14
9
7
2
26
16
6
33
29
46
41
42
3

> <PUBCHEM_MMFF94_PARTIAL_CHARGES>
15
1 -0.3
10 -0.3
11 0.1
12 0.1
13 0.1
19 0.15
2 -0.43
20 0.15
3 -0.57
4 -0.05
5 -0.05
6 0.38
7 0.71
8 -0.12
9 0.14

> <PUBCHEM_EFFECTIVE_ROTOR_COUNT>
4.6

> <PUBCHEM_PHARMACOPHORE_FEATURES>
2
1 1 acceptor
1 3 acceptor

> <PUBCHEM_HEAVY_ATOM_COUNT>
10

> <PUBCHEM_ATOM_DEF_STEREO_COUNT>
0

> <PUBCHEM_ATOM_UDEF_STEREO_COUNT>
1

> <PUBCHEM_BOND_DEF_STEREO_COUNT>
0

> <PUBCHEM_BOND_UDEF_STEREO_COUNT>
0

> <PUBCHEM_ISOTOPIC_ATOM_COUNT>
0

> <PUBCHEM_COMPONENT_COUNT>
1

> <PUBCHEM_CACTVS_TAUTO_COUNT>
1

> <PUBCHEM_CONFORMER_ID>
00001E9D00000001

> <PUBCHEM_MMFF94_ENERGY>
16.725

> <PUBCHEM_FEATURE_SELFOVERLAP>
10.149

> <PUBCHEM_SHAPE_FINGERPRINT>
10857977 72 14706930631476471105
11062470 55 17560799935419400060
12897270 3 18341895169076596705
12932764 1 18260546736133267529
14128692 85 18260827081370003424
14144814 61 18335699476888692955
14251717 144 18411420587983514622
14325111 11 18409448068107002353
14390081 3 10952045645847156327
15477762 27 18411700967406052103
15757776 16 18413394249994507174
20201158 50 18343019999357488051
20645477 70 18339646762382573183
23552423 10 18339079294149364873
3248919 1 17632286895733665120

> <PUBCHEM_SHAPE_MULTIPOLES>
188.19
5.72
1.48
0.68
1.63
0.21
0.01
1
-0.66
-0.61
-0.01
0.14
0.03
-0.27

> <PUBCHEM_SHAPE_SELFOVERLAP>
364.891

> <PUBCHEM_SHAPE_VOLUME>
115.1

> <PUBCHEM_COORDINATE_TYPE>
2
5
10

$$$$

