51090893
  -OEChem-06241223002D

 46 48  0     0  0  0  0  0  0999 V2000
    5.4641   -3.1012    0.0000 O   0  0  0  0  0  0  0  0  0  0  0  0
    6.3301    1.3988    0.0000 O   0  0  0  0  0  0  0  0  0  0  0  0
    4.5981   -1.6012    0.0000 N   0  0  0  0  0  0  0  0  0  0  0  0
    4.5981    1.3988    0.0000 N   0  0  0  0  0  0  0  0  0  0  0  0
    6.3301    3.3988    0.0000 N   0  0  0  0  0  0  0  0  0  0  0  0
    6.4347    4.3933    0.0000 N   0  0  0  0  0  0  0  0  0  0  0  0
    4.5981    0.3988    0.0000 C   0  0  0  0  0  0  0  0  0  0  0  0
    3.7320   -0.1012    0.0000 C   0  0  0  0  0  0  0  0  0  0  0  0
    5.4641   -0.1012    0.0000 C   0  0  0  0  0  0  0  0  0  0  0  0
    3.7320   -1.1012    0.0000 C   0  0  0  0  0  0  0  0  0  0  0  0
    5.4641   -1.1012    0.0000 C   0  0  0  0  0  0  0  0  0  0  0  0
    4.5981   -2.6012    0.0000 C   0  0  0  0  0  0  0  0  0  0  0  0
    5.4641    1.8988    0.0000 C   0  0  0  0  0  0  0  0  0  0  0  0
    3.7320   -3.1012    0.0000 C   0  0  0  0  0  0  0  0  0  0  0  0
    5.4641    2.8988    0.0000 C   0  0  0  0  0  0  0  0  0  0  0  0
    2.8660   -2.6012    0.0000 C   0  0  0  0  0  0  0  0  0  0  0  0
    3.7320   -4.1012    0.0000 C   0  0  0  0  0  0  0  0  0  0  0  0
    7.2437    2.9920    0.0000 C   0  0  0  0  0  0  0  0  0  0  0  0
    7.9128    3.7352    0.0000 C   0  0  0  0  0  0  0  0  0  0  0  0
    2.0000   -3.1012    0.0000 C   0  0  0  0  0  0  0  0  0  0  0  0
    2.8660   -4.6012    0.0000 C   0  0  0  0  0  0  0  0  0  0  0  0
    7.4128    4.6012    0.0000 C   0  0  0  0  0  0  0  0  0  0  0  0
    2.0000   -4.1012    0.0000 C   0  0  0  0  0  0  0  0  0  0  0  0
    8.9073    3.6307    0.0000 C   0  0  0  0  0  0  0  0  0  0  0  0
    5.1350    0.7088    0.0000 H   0  0  0  0  0  0  0  0  0  0  0  0
    6.0747   -0.2089    0.0000 H   0  0  0  0  0  0  0  0  0  0  0  0
    5.6762    0.4814    0.0000 H   0  0  0  0  0  0  0  0  0  0  0  0
    3.5200    0.4814    0.0000 H   0  0  0  0  0  0  0  0  0  0  0  0
    3.1215   -0.2089    0.0000 H   0  0  0  0  0  0  0  0  0  0  0  0
    5.6762   -1.6838    0.0000 H   0  0  0  0  0  0  0  0  0  0  0  0
    6.0747   -0.9936    0.0000 H   0  0  0  0  0  0  0  0  0  0  0  0
    3.1215   -0.9936    0.0000 H   0  0  0  0  0  0  0  0  0  0  0  0
    3.5200   -1.6838    0.0000 H   0  0  0  0  0  0  0  0  0  0  0  0
    4.0611    1.7088    0.0000 H   0  0  0  0  0  0  0  0  0  0  0  0
    5.2520    3.4814    0.0000 H   0  0  0  0  0  0  0  0  0  0  0  0
    4.8535    2.7911    0.0000 H   0  0  0  0  0  0  0  0  0  0  0  0
    2.8660   -1.9812    0.0000 H   0  0  0  0  0  0  0  0  0  0  0  0
    4.2690   -4.4112    0.0000 H   0  0  0  0  0  0  0  0  0  0  0  0
    7.3726    2.3856    0.0000 H   0  0  0  0  0  0  0  0  0  0  0  0
    1.4631   -2.7912    0.0000 H   0  0  0  0  0  0  0  0  0  0  0  0
    2.8660   -5.2212    0.0000 H   0  0  0  0  0  0  0  0  0  0  0  0
    7.6650    5.1676    0.0000 H   0  0  0  0  0  0  0  0  0  0  0  0
    1.4631   -4.4112    0.0000 H   0  0  0  0  0  0  0  0  0  0  0  0
    8.8425    3.0141    0.0000 H   0  0  0  0  0  0  0  0  0  0  0  0
    9.5239    3.5659    0.0000 H   0  0  0  0  0  0  0  0  0  0  0  0
    8.9721    4.2473    0.0000 H   0  0  0  0  0  0  0  0  0  0  0  0
  1 12  2  0  0  0  0
  2 13  2  0  0  0  0
  3 10  1  0  0  0  0
  3 11  1  0  0  0  0
  3 12  1  0  0  0  0
  4  7  1  0  0  0  0
  4 13  1  0  0  0  0
  4 34  1  0  0  0  0
  5  6  1  0  0  0  0
  5 15  1  0  0  0  0
  5 18  1  0  0  0  0
  6 22  2  0  0  0  0
  7  8  1  0  0  0  0
  7  9  1  0  0  0  0
  7 25  1  0  0  0  0
  8 10  1  0  0  0  0
  8 28  1  0  0  0  0
  8 29  1  0  0  0  0
  9 11  1  0  0  0  0
  9 26  1  0  0  0  0
  9 27  1  0  0  0  0
 10 32  1  0  0  0  0
 10 33  1  0  0  0  0
 11 30  1  0  0  0  0
 11 31  1  0  0  0  0
 12 14  1  0  0  0  0
 13 15  1  0  0  0  0
 14 16  2  0  0  0  0
 14 17  1  0  0  0  0
 15 35  1  0  0  0  0
 15 36  1  0  0  0  0
 16 20  1  0  0  0  0
 16 37  1  0  0  0  0
 17 21  2  0  0  0  0
 17 38  1  0  0  0  0
 18 19  2  0  0  0  0
 18 39  1  0  0  0  0
 19 22  1  0  0  0  0
 19 24  1  0  0  0  0
 20 23  2  0  0  0  0
 20 40  1  0  0  0  0
 21 23  1  0  0  0  0
 21 41  1  0  0  0  0
 22 42  1  0  0  0  0
 23 43  1  0  0  0  0
 24 44  1  0  0  0  0
 24 45  1  0  0  0  0
 24 46  1  0  0  0  0
M  END
> <PUBCHEM_COMPOUND_CID>
51090893

> <PUBCHEM_COMPOUND_CANONICALIZED>
1

> <PUBCHEM_CACTVS_COMPLEXITY>
442

> <PUBCHEM_CACTVS_HBOND_ACCEPTOR>
3

> <PUBCHEM_CACTVS_HBOND_DONOR>
1

> <PUBCHEM_CACTVS_ROTATABLE_BOND>
4

> <PUBCHEM_CACTVS_SUBSKEYS>
AAADceB7sAAAAAAAAAAAAAAAAAAAAWAAAAA8QAAAAAAAAAABwAAAHgAYAAAADCjBmgQ+gJPIAACqAjF3VACSBAA1gAAY2KGoRNgIYLLA1XGUpQhgngDIiYcYiACOAAAAAAAAAAAAAAAAAAAAAAAAAAAAAA==

> <PUBCHEM_IUPAC_OPENEYE_NAME>
N-(1-benzoyl-4-piperidyl)-2-(4-methylpyrazol-1-yl)acetamide

> <PUBCHEM_IUPAC_CAS_NAME>
N-(1-benzoyl-4-piperidinyl)-2-(4-methyl-1-pyrazolyl)acetamide

> <PUBCHEM_IUPAC_NAME>
N-(1-benzoylpiperidin-4-yl)-2-(4-methylpyrazol-1-yl)acetamide

> <PUBCHEM_IUPAC_SYSTEMATIC_NAME>
2-(4-methylpyrazol-1-yl)-N-[1-(phenylcarbonyl)piperidin-4-yl]ethanamide

> <PUBCHEM_IUPAC_TRADITIONAL_NAME>
N-(1-benzoyl-4-piperidyl)-2-(4-methylpyrazol-1-yl)acetamide

> <PUBCHEM_IUPAC_INCHI>
InChI=1S/C18H22N4O2/c1-14-11-19-22(12-14)13-17(23)20-16-7-9-21(10-8-16)18(24)15-5-3-2-4-6-15/h2-6,11-12,16H,7-10,13H2,1H3,(H,20,23)

> <PUBCHEM_IUPAC_INCHIKEY>
DTTMDWCOISNNNN-UHFFFAOYSA-N

> <PUBCHEM_XLOGP3_AA>
1.8

> <PUBCHEM_EXACT_MASS>
326.174276

> <PUBCHEM_MOLECULAR_FORMULA>
C18H22N4O2

> <PUBCHEM_MOLECULAR_WEIGHT>
326.39288

> <PUBCHEM_OPENEYE_CAN_SMILES>
CC1=CN(N=C1)CC(=O)NC2CCN(CC2)C(=O)C3=CC=CC=C3

> <PUBCHEM_OPENEYE_ISO_SMILES>
CC1=CN(N=C1)CC(=O)NC2CCN(CC2)C(=O)C3=CC=CC=C3

> <PUBCHEM_CACTVS_TPSA>
67.2

> <PUBCHEM_MONOISOTOPIC_WEIGHT>
326.174276

> <PUBCHEM_TOTAL_CHARGE>
0

> <PUBCHEM_HEAVY_ATOM_COUNT>
24

> <PUBCHEM_ATOM_DEF_STEREO_COUNT>
0

> <PUBCHEM_ATOM_UDEF_STEREO_COUNT>
0

> <PUBCHEM_BOND_DEF_STEREO_COUNT>
0

> <PUBCHEM_BOND_UDEF_STEREO_COUNT>
0

> <PUBCHEM_ISOTOPIC_ATOM_COUNT>
0

> <PUBCHEM_COMPONENT_COUNT>
1

> <PUBCHEM_CACTVS_TAUTO_COUNT>
2

> <PUBCHEM_COORDINATE_TYPE>
1
5
255

> <PUBCHEM_BONDANNOTATIONS>
14  16  8
14  17  8
16  20  8
17  21  8
18  19  8
19  22  8
20  23  8
21  23  8
5  18  8
5  6  8
6  22  8

$$$$

