17396472
  -OEChem-06241222563D

 46 48  0     1  0  0  0  0  0999 V2000
   -0.5173   -0.9180    1.8926 O   0  0  0  0  0  0  0  0  0  0  0  0
   -1.5790   -2.5932   -2.2632 O   0  0  0  0  0  0  0  0  0  0  0  0
   -2.4877    1.1693    1.5668 O   0  0  0  0  0  0  0  0  0  0  0  0
    4.8302    2.8331   -1.0111 O   0  5  0  0  0  0  0  0  0  0  0  0
    6.0839    1.6949    0.3859 O   0  0  0  0  0  0  0  0  0  0  0  0
   -1.4260   -1.6578   -0.1258 N   0  0  0  0  0  0  0  0  0  0  0  0
    0.4088   -2.5287   -1.0450 N   0  0  0  0  0  0  0  0  0  0  0  0
    5.0180    1.8468   -0.2584 N   0  3  0  0  0  0  0  0  0  0  0  0
    0.8761   -2.0818    0.2573 C   0  0  2  0  0  0  0  0  0  0  0  0
   -0.4238   -1.4686    0.8022 C   0  0  0  0  0  0  0  0  0  0  0  0
    1.9768   -1.0393    0.1192 C   0  0  0  0  0  0  0  0  0  0  0  0
    1.2013   -3.3086    1.1193 C   0  0  0  0  0  0  0  0  0  0  0  0
   -0.9507   -2.2934   -1.2562 C   0  0  0  0  0  0  0  0  0  0  0  0
   -2.8007   -1.2289    0.0374 C   0  0  0  0  0  0  0  0  0  0  0  0
    3.1705   -1.1873    0.8256 C   0  0  0  0  0  0  0  0  0  0  0  0
    1.7910    0.0649   -0.7126 C   0  0  0  0  0  0  0  0  0  0  0  0
   -3.0326    0.1419   -0.5293 C   0  0  0  0  0  0  0  0  0  0  0  0
    4.1782   -0.2313    0.7001 C   0  0  0  0  0  0  0  0  0  0  0  0
    2.7988    1.0210   -0.8381 C   0  0  0  0  0  0  0  0  0  0  0  0
   -2.8652    1.2782    0.2622 C   0  0  0  0  0  0  0  0  0  0  0  0
    3.9924    0.8728   -0.1318 C   0  0  0  0  0  0  0  0  0  0  0  0
   -3.4195    0.2719   -1.8632 C   0  0  0  0  0  0  0  0  0  0  0  0
   -3.0846    2.5444   -0.2801 C   0  0  0  0  0  0  0  0  0  0  0  0
   -3.6390    1.5381   -2.4054 C   0  0  0  0  0  0  0  0  0  0  0  0
   -3.4716    2.6744   -1.6140 C   0  0  0  0  0  0  0  0  0  0  0  0
   -3.3811    1.6957    2.5459 C   0  0  0  0  0  0  0  0  0  0  0  0
   -3.2474    0.8891    3.8199 C   0  0  0  0  0  0  0  0  0  0  0  0
    1.0063   -2.9780   -1.7322 H   0  0  0  0  0  0  0  0  0  0  0  0
    0.3508   -4.0012    1.1605 H   0  0  0  0  0  0  0  0  0  0  0  0
    2.0492   -3.8717    0.7120 H   0  0  0  0  0  0  0  0  0  0  0  0
    1.4292   -3.0320    2.1551 H   0  0  0  0  0  0  0  0  0  0  0  0
   -3.0607   -1.2575    1.1018 H   0  0  0  0  0  0  0  0  0  0  0  0
   -3.4552   -1.9521   -0.4647 H   0  0  0  0  0  0  0  0  0  0  0  0
    3.3584   -2.0287    1.4839 H   0  0  0  0  0  0  0  0  0  0  0  0
    0.8680    0.2042   -1.2686 H   0  0  0  0  0  0  0  0  0  0  0  0
    5.0949   -0.3786    1.2656 H   0  0  0  0  0  0  0  0  0  0  0  0
    2.6185    1.8689   -1.4940 H   0  0  0  0  0  0  0  0  0  0  0  0
   -3.5577   -0.6031   -2.4922 H   0  0  0  0  0  0  0  0  0  0  0  0
   -2.9499    3.4393    0.3214 H   0  0  0  0  0  0  0  0  0  0  0  0
   -3.9406    1.6394   -3.4439 H   0  0  0  0  0  0  0  0  0  0  0  0
   -3.6408    3.6604   -2.0369 H   0  0  0  0  0  0  0  0  0  0  0  0
   -4.4204    1.6485    2.1975 H   0  0  0  0  0  0  0  0  0  0  0  0
   -3.1201    2.7420    2.7382 H   0  0  0  0  0  0  0  0  0  0  0  0
   -3.9106    1.2751    4.5990 H   0  0  0  0  0  0  0  0  0  0  0  0
   -2.2162    0.9171    4.1875 H   0  0  0  0  0  0  0  0  0  0  0  0
   -3.4909   -0.1628    3.6372 H   0  0  0  0  0  0  0  0  0  0  0  0
  1 10  2  0  0  0  0
  2 13  2  0  0  0  0
  3 20  1  0  0  0  0
  3 26  1  0  0  0  0
  4  8  1  0  0  0  0
  5  8  2  0  0  0  0
  6 10  1  0  0  0  0
  6 13  1  0  0  0  0
  6 14  1  0  0  0  0
  7  9  1  0  0  0  0
  7 13  1  0  0  0  0
  7 28  1  0  0  0  0
  8 21  1  0  0  0  0
  9 10  1  0  0  0  0
  9 11  1  0  0  0  0
  9 12  1  0  0  0  0
 11 15  2  0  0  0  0
 11 16  1  0  0  0  0
 12 29  1  0  0  0  0
 12 30  1  0  0  0  0
 12 31  1  0  0  0  0
 14 17  1  0  0  0  0
 14 32  1  0  0  0  0
 14 33  1  0  0  0  0
 15 18  1  0  0  0  0
 15 34  1  0  0  0  0
 16 19  2  0  0  0  0
 16 35  1  0  0  0  0
 17 20  1  0  0  0  0
 17 22  2  0  0  0  0
 18 21  2  0  0  0  0
 18 36  1  0  0  0  0
 19 21  1  0  0  0  0
 19 37  1  0  0  0  0
 20 23  2  0  0  0  0
 22 24  1  0  0  0  0
 22 38  1  0  0  0  0
 23 25  1  0  0  0  0
 23 39  1  0  0  0  0
 24 25  2  0  0  0  0
 24 40  1  0  0  0  0
 25 41  1  0  0  0  0
 26 27  1  0  0  0  0
 26 42  1  0  0  0  0
 26 43  1  0  0  0  0
 27 44  1  0  0  0  0
 27 45  1  0  0  0  0
 27 46  1  0  0  0  0
M  CHG  2   4  -1   8   1
M  END
> <PUBCHEM_COMPOUND_CID>
17396472

> <PUBCHEM_CONFORMER_RMSD>
0.8

> <PUBCHEM_CONFORMER_DIVERSEORDER>
1
5
16
31
97
73
35
28
85
106
32
36
9
96
78
72
2
21
102
29
79
45
19
38
76
50
95
84
92
94
44
77
105
98
52
18
81
54
68
93
64
14
63
10
12
11
89
88
56
39
100
33
6
30
26
103
71
43
48
87
49
25
41
86
101
13
104
37
46
20
23
83
34
99
22
59
67
40
24
17
53
42
62
55
60
80
90
4
65
75
3
7
8
51
91
74
66
47
69
82
57
27
70
61
15
58

> <PUBCHEM_MMFF94_PARTIAL_CHARGES>
34
1 -0.57
10 0.57
11 -0.14
13 0.69
14 0.44
15 -0.15
16 -0.15
17 -0.14
18 -0.15
19 -0.15
2 -0.57
20 0.08
21 0.13
22 -0.15
23 -0.15
24 -0.15
25 -0.15
26 0.28
28 0.37
3 -0.36
34 0.15
35 0.15
36 0.15
37 0.15
38 0.15
39 0.15
4 -0.52
40 0.15
41 0.15
5 -0.52
6 -0.42
7 -0.73
8 0.91
9 0.5

> <PUBCHEM_EFFECTIVE_ROTOR_COUNT>
6.6

> <PUBCHEM_PHARMACOPHORE_FEATURES>
10
1 1 acceptor
1 2 acceptor
1 3 acceptor
1 4 acceptor
1 4 anion
1 5 acceptor
1 7 donor
5 6 7 9 10 13 rings
6 11 15 16 18 19 21 rings
6 17 20 22 23 24 25 rings

> <PUBCHEM_HEAVY_ATOM_COUNT>
27

> <PUBCHEM_ATOM_DEF_STEREO_COUNT>
0

> <PUBCHEM_ATOM_UDEF_STEREO_COUNT>
1

> <PUBCHEM_BOND_DEF_STEREO_COUNT>
0

> <PUBCHEM_BOND_UDEF_STEREO_COUNT>
0

> <PUBCHEM_ISOTOPIC_ATOM_COUNT>
0

> <PUBCHEM_COMPONENT_COUNT>
1

> <PUBCHEM_CACTVS_TAUTO_COUNT>
2

> <PUBCHEM_CONFORMER_ID>
010972F800000001

> <PUBCHEM_MMFF94_ENERGY>
77.7351

> <PUBCHEM_FEATURE_SELFOVERLAP>
50.828

> <PUBCHEM_SHAPE_FINGERPRINT>
10673678 19 18121227738718025789
11640471 11 18335713783224666103
12549972 3 16985736808539910691
12633257 1 14620791634549529997
12788726 201 18053965964517114018
12892183 10 16917342624131888018
13134695 92 17550670349510143662
13544653 18 9439393636341475094
13583140 156 17772461541737004403
14142880 1 18263064566548210921
14178342 30 15122647267892678555
14468879 13 17916872438527583893
15119646 57 16588569942496708952
15163728 17 17677315208432229398
15295992 7 17341807082506585843
15475509 8 14418720094581377693
21033650 10 16081082710223851330
21475661 188 17559124386956996101
21713013 43 4750864949182491621
22620623 9 15140963988918062609
22907989 373 18113912558760947447
235170 7 13985250798265248360
2838139 119 17771650076528106109
3459 110 14189007813932873276
469060 322 18057873667949583697
474 4 18200325431823175343
50150288 127 16454264442556155913
5081480 168 17174316293866096351
6034566 193 18261104231895610417
633830 44 17968924413965172814
6523845 18 18196624454457190902
9981440 41 17988372511133676947

> <PUBCHEM_SHAPE_MULTIPOLES>
511.36
9.69
3.53
2.56
9.96
0.47
-2
-9.77
-0.27
1.3
1.02
-4.48
-0.4
-0.71

> <PUBCHEM_SHAPE_SELFOVERLAP>
1105.937

> <PUBCHEM_SHAPE_VOLUME>
282.5

> <PUBCHEM_COORDINATE_TYPE>
2
5
10

$$$$

