17395526
  -OEChem-06241222502D

 42 45  0     1  0  0  0  0  0999 V2000
    6.3301   -1.5000    0.0000 O   0  0  0  0  0  0  0  0  0  0  0  0
    2.0000   -2.0000    0.0000 O   0  0  0  0  0  0  0  0  0  0  0  0
    5.4641    0.0000    0.0000 N   0  0  0  0  0  0  0  0  0  0  0  0
    6.3301    1.5000    0.0000 N   0  0  0  0  0  0  0  0  0  0  0  0
    3.7320    1.0000    0.0000 N   0  0  0  0  0  0  0  0  0  0  0  0
    5.4641    1.0000    0.0000 C   0  0  3  0  0  0  0  0  0  0  0  0
    7.1962    1.0000    0.0000 C   0  0  0  0  0  0  0  0  0  0  0  0
    7.1962    0.0000    0.0000 C   0  0  0  0  0  0  0  0  0  0  0  0
    6.3301   -0.5000    0.0000 C   0  0  0  0  0  0  0  0  0  0  0  0
    4.5981    1.5000    0.0000 C   0  0  0  0  0  0  0  0  0  0  0  0
    4.5981   -0.5000    0.0000 C   0  0  0  0  0  0  0  0  0  0  0  0
    8.0901    1.5347    0.0000 C   0  0  0  0  0  0  0  0  0  0  0  0
    8.0901   -0.5347    0.0000 C   0  0  0  0  0  0  0  0  0  0  0  0
    3.7320    0.0000    0.0000 C   0  0  0  0  0  0  0  0  0  0  0  0
    4.5981   -1.5000    0.0000 C   0  0  0  0  0  0  0  0  0  0  0  0
    4.5981    2.5000    0.0000 C   0  0  0  0  0  0  0  0  0  0  0  0
    8.9962    1.0208    0.0000 C   0  0  0  0  0  0  0  0  0  0  0  0
    8.9962   -0.0208    0.0000 C   0  0  0  0  0  0  0  0  0  0  0  0
    2.8660   -0.5000    0.0000 C   0  0  0  0  0  0  0  0  0  0  0  0
    3.7320   -2.0000    0.0000 C   0  0  0  0  0  0  0  0  0  0  0  0
    2.8660   -1.5000    0.0000 C   0  0  0  0  0  0  0  0  0  0  0  0
    3.7320    3.0000    0.0000 C   0  0  0  0  0  0  0  0  0  0  0  0
    2.8660    1.5000    0.0000 C   0  0  0  0  0  0  0  0  0  0  0  0
    2.8660    2.5000    0.0000 C   0  0  0  0  0  0  0  0  0  0  0  0
    2.0000   -3.0000    0.0000 C   0  0  0  0  0  0  0  0  0  0  0  0
    5.4641    1.6200    0.0000 H   0  0  0  0  0  0  0  0  0  0  0  0
    6.3301    2.1200    0.0000 H   0  0  0  0  0  0  0  0  0  0  0  0
    8.0829    2.1546    0.0000 H   0  0  0  0  0  0  0  0  0  0  0  0
    8.0829   -1.1546    0.0000 H   0  0  0  0  0  0  0  0  0  0  0  0
    3.7320    0.6200    0.0000 H   0  0  0  0  0  0  0  0  0  0  0  0
    5.1350   -1.8100    0.0000 H   0  0  0  0  0  0  0  0  0  0  0  0
    5.1350    2.8100    0.0000 H   0  0  0  0  0  0  0  0  0  0  0  0
    9.5319    1.3329    0.0000 H   0  0  0  0  0  0  0  0  0  0  0  0
    9.5319   -0.3329    0.0000 H   0  0  0  0  0  0  0  0  0  0  0  0
    2.3291   -0.1900    0.0000 H   0  0  0  0  0  0  0  0  0  0  0  0
    3.7320   -2.6200    0.0000 H   0  0  0  0  0  0  0  0  0  0  0  0
    3.7320    3.6200    0.0000 H   0  0  0  0  0  0  0  0  0  0  0  0
    2.3291    1.1900    0.0000 H   0  0  0  0  0  0  0  0  0  0  0  0
    2.3291    2.8100    0.0000 H   0  0  0  0  0  0  0  0  0  0  0  0
    1.3800   -3.0000    0.0000 H   0  0  0  0  0  0  0  0  0  0  0  0
    2.0000   -3.6200    0.0000 H   0  0  0  0  0  0  0  0  0  0  0  0
    2.6200   -3.0000    0.0000 H   0  0  0  0  0  0  0  0  0  0  0  0
  1  9  2  0  0  0  0
  2 21  1  0  0  0  0
  2 25  1  0  0  0  0
  3  6  1  0  0  0  0
  3  9  1  0  0  0  0
  3 11  1  0  0  0  0
  4  6  1  0  0  0  0
  4  7  1  0  0  0  0
  4 27  1  0  0  0  0
  5 10  1  0  0  0  0
  5 23  2  0  0  0  0
  6 10  1  0  0  0  0
  6 26  1  0  0  0  0
  7  8  1  0  0  0  0
  7 12  2  0  0  0  0
  8  9  1  0  0  0  0
  8 13  2  0  0  0  0
 10 16  2  0  0  0  0
 11 14  2  0  0  0  0
 11 15  1  0  0  0  0
 12 17  1  0  0  0  0
 12 28  1  0  0  0  0
 13 18  1  0  0  0  0
 13 29  1  0  0  0  0
 14 19  1  0  0  0  0
 14 30  1  0  0  0  0
 15 20  2  0  0  0  0
 15 31  1  0  0  0  0
 16 22  1  0  0  0  0
 16 32  1  0  0  0  0
 17 18  2  0  0  0  0
 17 33  1  0  0  0  0
 18 34  1  0  0  0  0
 19 21  2  0  0  0  0
 19 35  1  0  0  0  0
 20 21  1  0  0  0  0
 20 36  1  0  0  0  0
 22 24  2  0  0  0  0
 22 37  1  0  0  0  0
 23 24  1  0  0  0  0
 23 38  1  0  0  0  0
 24 39  1  0  0  0  0
 25 40  1  0  0  0  0
 25 41  1  0  0  0  0
 25 42  1  0  0  0  0
M  END
> <PUBCHEM_COMPOUND_CID>
17395526

> <PUBCHEM_COMPOUND_CANONICALIZED>
1

> <PUBCHEM_CACTVS_COMPLEXITY>
464

> <PUBCHEM_CACTVS_HBOND_ACCEPTOR>
4

> <PUBCHEM_CACTVS_HBOND_DONOR>
1

> <PUBCHEM_CACTVS_ROTATABLE_BOND>
3

> <PUBCHEM_CACTVS_SUBSKEYS>
AAADceB7MAAAAAAAAAAAAAAAAAAAAAAAAAA8eIEAAAAAAACx0AAAHgAQAAAADAzBngY/xpPIFACoAzV3VACCiCA1IiAI2KE+bNiMZvrE9ZuUMahs1xPI6ee4yACOAEAAAAACAAAAgAAAAAQAAAAAAAAAAA==

> <PUBCHEM_IUPAC_OPENEYE_NAME>
3-(4-methoxyphenyl)-2-(2-pyridyl)-1,2-dihydroquinazolin-4-one

> <PUBCHEM_IUPAC_CAS_NAME>
3-(4-methoxyphenyl)-2-(2-pyridinyl)-1,2-dihydroquinazolin-4-one

> <PUBCHEM_IUPAC_NAME>
3-(4-methoxyphenyl)-2-pyridin-2-yl-1,2-dihydroquinazolin-4-one

> <PUBCHEM_IUPAC_SYSTEMATIC_NAME>
3-(4-methoxyphenyl)-2-pyridin-2-yl-1,2-dihydroquinazolin-4-one

> <PUBCHEM_IUPAC_TRADITIONAL_NAME>
3-(4-methoxyphenyl)-2-(2-pyridyl)-1,2-dihydroquinazolin-4-one

> <PUBCHEM_IUPAC_INCHI>
InChI=1S/C20H17N3O2/c1-25-15-11-9-14(10-12-15)23-19(18-8-4-5-13-21-18)22-17-7-3-2-6-16(17)20(23)24/h2-13,19,22H,1H3

> <PUBCHEM_IUPAC_INCHIKEY>
XGEZPEKZYQPMAA-UHFFFAOYSA-N

> <PUBCHEM_XLOGP3_AA>
3.3

> <PUBCHEM_EXACT_MASS>
331.132077

> <PUBCHEM_MOLECULAR_FORMULA>
C20H17N3O2

> <PUBCHEM_MOLECULAR_WEIGHT>
331.36788

> <PUBCHEM_OPENEYE_CAN_SMILES>
COC1=CC=C(C=C1)N2C(NC3=CC=CC=C3C2=O)C4=CC=CC=N4

> <PUBCHEM_OPENEYE_ISO_SMILES>
COC1=CC=C(C=C1)N2C(NC3=CC=CC=C3C2=O)C4=CC=CC=N4

> <PUBCHEM_CACTVS_TPSA>
54.5

> <PUBCHEM_MONOISOTOPIC_WEIGHT>
331.132077

> <PUBCHEM_TOTAL_CHARGE>
0

> <PUBCHEM_HEAVY_ATOM_COUNT>
25

> <PUBCHEM_ATOM_DEF_STEREO_COUNT>
0

> <PUBCHEM_ATOM_UDEF_STEREO_COUNT>
1

> <PUBCHEM_BOND_DEF_STEREO_COUNT>
0

> <PUBCHEM_BOND_UDEF_STEREO_COUNT>
0

> <PUBCHEM_ISOTOPIC_ATOM_COUNT>
0

> <PUBCHEM_COMPONENT_COUNT>
1

> <PUBCHEM_CACTVS_TAUTO_COUNT>
4

> <PUBCHEM_COORDINATE_TYPE>
1
5
255

> <PUBCHEM_BONDANNOTATIONS>
10  16  8
11  14  8
11  15  8
12  17  8
13  18  8
14  19  8
15  20  8
16  22  8
17  18  8
19  21  8
20  21  8
22  24  8
23  24  8
5  10  8
5  23  8
6  10  3
7  12  8
7  8  8
8  13  8

$$$$

