47205573
  -OEChem-06241222593D

 39 40  0     0  0  0  0  0  0999 V2000
   -4.0497   -0.8575   -0.1453 S   0  0  0  0  0  0  0  0  0  0  0  0
    2.9133   -2.5016   -1.1383 S   0  0  0  0  0  0  0  0  0  0  0  0
   -4.8729   -1.4085   -1.2035 O   0  0  0  0  0  0  0  0  0  0  0  0
   -4.2510   -1.2451    1.2371 O   0  0  0  0  0  0  0  0  0  0  0  0
    0.5403    1.9352   -1.4237 O   0  0  0  0  0  0  0  0  0  0  0  0
   -1.6732    1.1760    0.0317 N   0  0  0  0  0  0  0  0  0  0  0  0
    1.7626    2.1143    0.5430 N   0  0  0  0  0  0  0  0  0  0  0  0
    2.6308   -0.9653    0.9214 N   0  0  0  0  0  0  0  0  0  0  0  0
   -3.0007    1.5744    0.5307 C   0  0  0  0  0  0  0  0  0  0  0  0
   -1.4123   -0.2573    0.2494 C   0  0  0  0  0  0  0  0  0  0  0  0
   -4.1316    0.9143   -0.2491 C   0  0  0  0  0  0  0  0  0  0  0  0
   -2.3472   -1.1432   -0.5656 C   0  0  0  0  0  0  0  0  0  0  0  0
   -0.6347    1.9759    0.6866 C   0  0  0  0  0  0  0  0  0  0  0  0
    0.5954    1.9946   -0.1974 C   0  0  0  0  0  0  0  0  0  0  0  0
    3.0769    2.1844   -0.0546 C   0  0  0  0  0  0  0  0  0  0  0  0
    3.9884    1.0468    0.3990 C   0  0  0  0  0  0  0  0  0  0  0  0
    3.4585   -0.3161    0.0263 C   0  0  0  0  0  0  0  0  0  0  0  0
    3.7260   -0.9914   -1.1462 C   0  0  0  0  0  0  0  0  0  0  0  0
    2.2822   -2.1262    0.4128 C   0  0  0  0  0  0  0  0  0  0  0  0
    1.3988   -3.1038    1.0856 C   0  0  0  0  0  0  0  0  0  0  0  0
   -3.0940    1.3480    1.6008 H   0  0  0  0  0  0  0  0  0  0  0  0
   -3.1258    2.6587    0.4187 H   0  0  0  0  0  0  0  0  0  0  0  0
   -0.3900   -0.5034   -0.0601 H   0  0  0  0  0  0  0  0  0  0  0  0
   -1.4925   -0.5082    1.3153 H   0  0  0  0  0  0  0  0  0  0  0  0
   -2.1399   -2.2016   -0.3801 H   0  0  0  0  0  0  0  0  0  0  0  0
   -2.2357   -0.9516   -1.6381 H   0  0  0  0  0  0  0  0  0  0  0  0
   -4.0885    1.1839   -1.3097 H   0  0  0  0  0  0  0  0  0  0  0  0
   -5.1059    1.2180    0.1458 H   0  0  0  0  0  0  0  0  0  0  0  0
   -0.4092    1.6122    1.6962 H   0  0  0  0  0  0  0  0  0  0  0  0
   -0.9394    3.0267    0.7754 H   0  0  0  0  0  0  0  0  0  0  0  0
    1.7037    2.2036    1.5531 H   0  0  0  0  0  0  0  0  0  0  0  0
    3.5106    3.1430    0.2498 H   0  0  0  0  0  0  0  0  0  0  0  0
    2.9897    2.1914   -1.1467 H   0  0  0  0  0  0  0  0  0  0  0  0
    4.9843    1.1817   -0.0399 H   0  0  0  0  0  0  0  0  0  0  0  0
    4.1145    1.0857    1.4884 H   0  0  0  0  0  0  0  0  0  0  0  0
    4.3384   -0.6824   -1.9814 H   0  0  0  0  0  0  0  0  0  0  0  0
    0.5070   -3.3069    0.4839 H   0  0  0  0  0  0  0  0  0  0  0  0
    1.9230   -4.0476    1.2667 H   0  0  0  0  0  0  0  0  0  0  0  0
    1.0648   -2.7160    2.0536 H   0  0  0  0  0  0  0  0  0  0  0  0
  1  3  2  0  0  0  0
  1  4  2  0  0  0  0
  1 11  1  0  0  0  0
  1 12  1  0  0  0  0
  2 18  1  0  0  0  0
  2 19  1  0  0  0  0
  5 14  2  0  0  0  0
  6  9  1  0  0  0  0
  6 10  1  0  0  0  0
  6 13  1  0  0  0  0
  7 14  1  0  0  0  0
  7 15  1  0  0  0  0
  7 31  1  0  0  0  0
  8 17  1  0  0  0  0
  8 19  2  0  0  0  0
  9 11  1  0  0  0  0
  9 21  1  0  0  0  0
  9 22  1  0  0  0  0
 10 12  1  0  0  0  0
 10 23  1  0  0  0  0
 10 24  1  0  0  0  0
 11 27  1  0  0  0  0
 11 28  1  0  0  0  0
 12 25  1  0  0  0  0
 12 26  1  0  0  0  0
 13 14  1  0  0  0  0
 13 29  1  0  0  0  0
 13 30  1  0  0  0  0
 15 16  1  0  0  0  0
 15 32  1  0  0  0  0
 15 33  1  0  0  0  0
 16 17  1  0  0  0  0
 16 34  1  0  0  0  0
 16 35  1  0  0  0  0
 17 18  2  0  0  0  0
 18 36  1  0  0  0  0
 19 20  1  0  0  0  0
 20 37  1  0  0  0  0
 20 38  1  0  0  0  0
 20 39  1  0  0  0  0
M  END
> <PUBCHEM_COMPOUND_CID>
47205573

> <PUBCHEM_CONFORMER_RMSD>
1

> <PUBCHEM_CONFORMER_DIVERSEORDER>
1
20
112
24
109
114
98
86
49
88
110
123
10
39
30
70
84
46
95
120
42
11
74
81
64
100
8
65
116
38
89
48
119
99
97
27
66
63
32
87
60
92
50
7
33
40
16
53
67
101
19
107
108
102
104
59
90
91
4
9
105
122
68
71
21
96
17
106
34
3
82
61
94
58
12
2
75
69
93
72
52
115
29
117
77
103
36
80
6
15
57
28
118
47
76
111
124
35
54
113
62
23
26
31
41
121
44
78
79
56
51
22
73
25
13
14
18
85
55
83
45
5
43
37

> <PUBCHEM_MMFF94_PARTIAL_CHARGES>
22
1 1.09
10 0.27
11 0.11
12 0.11
13 0.33
14 0.57
15 0.3
16 0.18
17 0.05
18 -0.11
19 0.2
2 -0.08
20 0.18
3 -0.65
31 0.37
36 0.15
4 -0.65
5 -0.57
6 -0.81
7 -0.73
8 -0.57
9 0.27

> <PUBCHEM_EFFECTIVE_ROTOR_COUNT>
7

> <PUBCHEM_PHARMACOPHORE_FEATURES>
8
1 3 acceptor
1 4 acceptor
1 5 acceptor
1 6 cation
1 7 donor
1 8 acceptor
5 2 8 17 18 19 rings
6 1 6 9 10 11 12 rings

> <PUBCHEM_HEAVY_ATOM_COUNT>
20

> <PUBCHEM_ATOM_DEF_STEREO_COUNT>
0

> <PUBCHEM_ATOM_UDEF_STEREO_COUNT>
0

> <PUBCHEM_BOND_DEF_STEREO_COUNT>
0

> <PUBCHEM_BOND_UDEF_STEREO_COUNT>
0

> <PUBCHEM_ISOTOPIC_ATOM_COUNT>
0

> <PUBCHEM_COMPONENT_COUNT>
1

> <PUBCHEM_CACTVS_TAUTO_COUNT>
2

> <PUBCHEM_CONFORMER_ID>
02D04CC500000001

> <PUBCHEM_MMFF94_ENERGY>
18.0442

> <PUBCHEM_FEATURE_SELFOVERLAP>
40.612

> <PUBCHEM_SHAPE_FINGERPRINT>
10498660 4 18339642364066867766
108634 29 18271233907783571586
12553582 1 18196089073772034026
12596599 1 17969773262685512434
12596602 18 16588585292820002921
13464513 79 18334858312366220238
13533116 47 18259988167632160993
13583140 156 17822588143650974313
14178342 30 18265064707280802328
14251717 144 18411985723969710016
14251757 17 17772496678990813357
15196674 1 18409167722833388512
15536298 74 18334576841067467304
15635459 17 18410852157530718650
17492 54 17915720039057166868
17818456 19 17969491796615657089
20291156 8 18336543927440876974
20442098 301 18187089485362936780
20645477 70 18408891702444064533
20691752 17 17917427665754825632
21197605 99 17761768468844859827
21673915 165 18335704888500051904
23379529 103 17393873390552222942
23559900 14 17969221320675027724
2871803 45 18411983559443329972
314173 41 18339636840802202516
33824 294 18410859815763284616
4283 87 18336273379061745927
463206 1 18119533137521635519
543358 83 18339079405602431817
6443956 14 18411980260771926764
9709674 26 18411133623732592635

> <PUBCHEM_SHAPE_MULTIPOLES>
386.74
9.23
3.37
1.13
6.34
0.42
-0.11
2.74
-0.96
-2.08
0.22
-0.14
0.43
-0.06

> <PUBCHEM_SHAPE_SELFOVERLAP>
761.133

> <PUBCHEM_SHAPE_VOLUME>
233

> <PUBCHEM_COORDINATE_TYPE>
2
5
10

$$$$

