6453
  -OEChem-06261201203D

 46 48  0     1  0  0  0  0  0999 V2000
   -0.3469   -1.4652   -2.0128 O   0  0  0  0  0  0  0  0  0  0  0  0
   -0.3780    0.7607   -2.6087 O   0  0  0  0  0  0  0  0  0  0  0  0
    3.1731    0.9384    0.3787 N   0  0  0  0  0  0  0  0  0  0  0  0
   -0.4997    0.1719   -0.2232 C   0  0  1  0  0  0  0  0  0  0  0  0
    0.7308    0.9407    0.2490 C   0  0  0  0  0  0  0  0  0  0  0  0
   -0.5276   -1.2268    0.2916 C   0  0  0  0  0  0  0  0  0  0  0  0
    2.0139    0.1942   -0.0993 C   0  0  0  0  0  0  0  0  0  0  0  0
   -1.7534    0.9248    0.0846 C   0  0  0  0  0  0  0  0  0  0  0  0
   -0.4050   -0.0989   -1.7377 C   0  0  0  0  0  0  0  0  0  0  0  0
   -0.4351   -2.0935   -0.7833 C   0  0  0  0  0  0  0  0  0  0  0  0
   -0.6186   -1.7122    1.5857 C   0  0  0  0  0  0  0  0  0  0  0  0
    4.4082    0.2026    0.1023 C   0  0  0  0  0  0  0  0  0  0  0  0
    3.2240    2.2652   -0.2382 C   0  0  0  0  0  0  0  0  0  0  0  0
   -2.9766    0.4634   -0.3977 C   0  0  0  0  0  0  0  0  0  0  0  0
   -1.6955    2.0857    0.8532 C   0  0  0  0  0  0  0  0  0  0  0  0
   -0.4321   -3.4663   -0.6208 C   0  0  0  0  0  0  0  0  0  0  0  0
   -0.6183   -3.0964    1.7751 C   0  0  0  0  0  0  0  0  0  0  0  0
   -0.5259   -3.9682    0.6781 C   0  0  0  0  0  0  0  0  0  0  0  0
   -4.1469    1.1660   -0.1104 C   0  0  0  0  0  0  0  0  0  0  0  0
   -2.8659    2.7881    1.1406 C   0  0  0  0  0  0  0  0  0  0  0  0
    4.3772   -1.1789    0.7338 C   0  0  0  0  0  0  0  0  0  0  0  0
    4.3900    3.0766    0.3006 C   0  0  0  0  0  0  0  0  0  0  0  0
   -4.0916    2.3282    0.6587 C   0  0  0  0  0  0  0  0  0  0  0  0
    0.7249    1.0891    1.3377 H   0  0  0  0  0  0  0  0  0  0  0  0
    0.7105    1.9142   -0.2503 H   0  0  0  0  0  0  0  0  0  0  0  0
    2.0975    0.0174   -1.1785 H   0  0  0  0  0  0  0  0  0  0  0  0
    1.9756   -0.7769    0.3976 H   0  0  0  0  0  0  0  0  0  0  0  0
   -0.6880   -1.0411    2.4351 H   0  0  0  0  0  0  0  0  0  0  0  0
    4.5995    0.1110   -0.9743 H   0  0  0  0  0  0  0  0  0  0  0  0
    5.2678    0.7124    0.5494 H   0  0  0  0  0  0  0  0  0  0  0  0
    3.2786    2.2109   -1.3325 H   0  0  0  0  0  0  0  0  0  0  0  0
    2.3496    2.8654    0.0236 H   0  0  0  0  0  0  0  0  0  0  0  0
   -3.0509   -0.4393   -0.9976 H   0  0  0  0  0  0  0  0  0  0  0  0
   -0.7873    2.5059    1.2678 H   0  0  0  0  0  0  0  0  0  0  0  0
   -0.3593   -4.1360   -1.4703 H   0  0  0  0  0  0  0  0  0  0  0  0
   -0.6891   -3.5035    2.7801 H   0  0  0  0  0  0  0  0  0  0  0  0
   -0.5264   -5.0421    0.8437 H   0  0  0  0  0  0  0  0  0  0  0  0
   -5.1014    0.8078   -0.4850 H   0  0  0  0  0  0  0  0  0  0  0  0
   -2.8246    3.6927    1.7404 H   0  0  0  0  0  0  0  0  0  0  0  0
    4.0402   -1.1452    1.7756 H   0  0  0  0  0  0  0  0  0  0  0  0
    5.3883   -1.6020    0.7346 H   0  0  0  0  0  0  0  0  0  0  0  0
    3.7509   -1.8820    0.1757 H   0  0  0  0  0  0  0  0  0  0  0  0
    4.4345    3.0479    1.3948 H   0  0  0  0  0  0  0  0  0  0  0  0
    5.3518    2.7465   -0.1038 H   0  0  0  0  0  0  0  0  0  0  0  0
    4.2743    4.1263    0.0070 H   0  0  0  0  0  0  0  0  0  0  0  0
   -5.0029    2.8749    0.8828 H   0  0  0  0  0  0  0  0  0  0  0  0
  1  9  1  0  0  0  0
  1 10  1  0  0  0  0
  2  9  2  0  0  0  0
  3  7  1  0  0  0  0
  3 12  1  0  0  0  0
  3 13  1  0  0  0  0
  4  5  1  0  0  0  0
  4  6  1  0  0  0  0
  4  8  1  0  0  0  0
  4  9  1  0  0  0  0
  5  7  1  0  0  0  0
  5 24  1  0  0  0  0
  5 25  1  0  0  0  0
  6 10  1  0  0  0  0
  6 11  2  0  0  0  0
  7 26  1  0  0  0  0
  7 27  1  0  0  0  0
  8 14  2  0  0  0  0
  8 15  1  0  0  0  0
 10 16  2  0  0  0  0
 11 17  1  0  0  0  0
 11 28  1  0  0  0  0
 12 21  1  0  0  0  0
 12 29  1  0  0  0  0
 12 30  1  0  0  0  0
 13 22  1  0  0  0  0
 13 31  1  0  0  0  0
 13 32  1  0  0  0  0
 14 19  1  0  0  0  0
 14 33  1  0  0  0  0
 15 20  2  0  0  0  0
 15 34  1  0  0  0  0
 16 18  1  0  0  0  0
 16 35  1  0  0  0  0
 17 18  2  0  0  0  0
 17 36  1  0  0  0  0
 18 37  1  0  0  0  0
 19 23  2  0  0  0  0
 19 38  1  0  0  0  0
 20 23  1  0  0  0  0
 20 39  1  0  0  0  0
 21 40  1  0  0  0  0
 21 41  1  0  0  0  0
 21 42  1  0  0  0  0
 22 43  1  0  0  0  0
 22 44  1  0  0  0  0
 22 45  1  0  0  0  0
 23 46  1  0  0  0  0
M  END
> <PUBCHEM_COMPOUND_CID>
6453

> <PUBCHEM_CONFORMER_RMSD>
0.8

> <PUBCHEM_CONFORMER_DIVERSEORDER>
1
15
20
5
22
17
14
11
21
10
16
8
13
4
12
7
2
3
19
6
9
18

> <PUBCHEM_MMFF94_PARTIAL_CHARGES>
29
1 -0.23
10 0.08
11 -0.15
12 0.27
13 0.27
14 -0.15
15 -0.15
16 -0.15
17 -0.15
18 -0.15
19 -0.15
2 -0.57
20 -0.15
23 -0.15
28 0.15
3 -0.81
33 0.15
34 0.15
35 0.15
36 0.15
37 0.15
38 0.15
39 0.15
4 0.35
46 0.15
6 -0.14
7 0.27
8 -0.14
9 0.66

> <PUBCHEM_EFFECTIVE_ROTOR_COUNT>
6.4

> <PUBCHEM_PHARMACOPHORE_FEATURES>
5
1 2 acceptor
1 3 cation
5 1 4 6 9 10 rings
6 6 10 11 16 17 18 rings
6 8 14 15 19 20 23 rings

> <PUBCHEM_HEAVY_ATOM_COUNT>
23

> <PUBCHEM_ATOM_DEF_STEREO_COUNT>
0

> <PUBCHEM_ATOM_UDEF_STEREO_COUNT>
1

> <PUBCHEM_BOND_DEF_STEREO_COUNT>
0

> <PUBCHEM_BOND_UDEF_STEREO_COUNT>
0

> <PUBCHEM_ISOTOPIC_ATOM_COUNT>
0

> <PUBCHEM_COMPONENT_COUNT>
1

> <PUBCHEM_CACTVS_TAUTO_COUNT>
1

> <PUBCHEM_CONFORMER_ID>
0000193500000001

> <PUBCHEM_MMFF94_ENERGY>
66.8716

> <PUBCHEM_FEATURE_SELFOVERLAP>
25.469

> <PUBCHEM_SHAPE_FINGERPRINT>
10090160 65 18409452518358292045
10948715 1 18335420192318909861
12173636 292 18335707079112916076
12592029 89 18191583262152201251
12633257 1 18201453484394583888
12788726 201 18122076298841515218
13004483 165 17904767678461933050
13140716 1 18338508750567787697
14142880 1 17985840224243956476
14178342 30 17986368175062809753
14251757 17 15068920671055942834
14466204 15 18050854621994525128
14787075 74 18336552599586431271
15906896 17 18263082128210769055
16945 1 18113335327814160197
1813 80 9727344801022484561
20101258 96 17613434446126271488
20197701 30 18343028782966275029
20567600 347 18338226184959007739
20600515 1 17251702825880564219
21524375 3 18260550077512640497
21731228 192 18339917207613872176
23419403 2 17248027377472963735
23558518 356 18339080371911869278
23598288 3 18048305653197989652
23728640 28 18261119547643174538
298252 57 17385731330268559493
394222 165 18116712022586278601
4340502 62 18199173153255978969
469060 322 15481836658140867226
474 4 18264766739075617825
6138700 20 17903349656918955326
633830 44 18188769564821264005
7364860 26 17904196280549822771
81228 2 17843413877322346370
9981440 41 17968384438097844368
9999458 23 18267296723746770805

> <PUBCHEM_SHAPE_MULTIPOLES>
456.61
6.9
4.47
1.57
5.48
2.98
0.66
-7.46
-1.58
-0.42
-1.43
-0.5
0.59
-0.54

> <PUBCHEM_SHAPE_SELFOVERLAP>
986.244

> <PUBCHEM_SHAPE_VOLUME>
253.3

> <PUBCHEM_COORDINATE_TYPE>
2
5
10

$$$$

