3996
  -OEChem-06251223483D

 53 55  0     0  0  0  0  0  0999 V2000
    1.2726    1.0860   -0.3856 O   0  0  0  0  0  0  0  0  0  0  0  0
   -3.4540    0.9899   -0.7089 O   0  0  0  0  0  0  0  0  0  0  0  0
   -1.1517   -3.0704    0.1904 O   0  0  0  0  0  0  0  0  0  0  0  0
    1.5015   -3.0355    0.4786 O   0  0  0  0  0  0  0  0  0  0  0  0
    6.2724   -1.4114    0.3361 O   0  0  0  0  0  0  0  0  0  0  0  0
    5.9823    1.2674   -0.2755 O   0  0  0  0  0  0  0  0  0  0  0  0
   -3.5843   -1.7861   -0.2268 C   0  0  0  0  0  0  0  0  0  0  0  0
   -2.2860   -1.0423   -0.2534 C   0  0  0  0  0  0  0  0  0  0  0  0
   -1.0733    1.0166   -0.5303 C   0  0  0  0  0  0  0  0  0  0  0  0
   -2.2811    0.3274   -0.4974 C   0  0  0  0  0  0  0  0  0  0  0  0
   -1.0843   -1.7242   -0.0349 C   0  0  0  0  0  0  0  0  0  0  0  0
    0.1430   -1.0443   -0.0503 C   0  0  0  0  0  0  0  0  0  0  0  0
    0.1264    0.3314   -0.3133 C   0  0  0  0  0  0  0  0  0  0  0  0
   -4.8616   -0.9015   -0.4285 C   0  0  0  0  0  0  0  0  0  0  0  0
   -3.6250   -2.8184   -1.4000 C   0  0  0  0  0  0  0  0  0  0  0  0
   -3.8081   -2.4559    1.1471 C   0  0  0  0  0  0  0  0  0  0  0  0
   -1.0653    2.4878   -0.8030 C   0  0  0  0  0  0  0  0  0  0  0  0
    1.4499   -1.6884    0.1707 C   0  0  0  0  0  0  0  0  0  0  0  0
    2.5791   -0.9577    0.0695 C   0  0  0  0  0  0  0  0  0  0  0  0
    2.5077    0.4721   -0.2285 C   0  0  0  0  0  0  0  0  0  0  0  0
   -1.1642    3.3150    0.4532 C   0  0  0  0  0  0  0  0  0  0  0  0
    3.8902   -1.5705    0.2669 C   0  0  0  0  0  0  0  0  0  0  0  0
    3.6231    1.2072   -0.3396 C   0  0  0  0  0  0  0  0  0  0  0  0
   -3.9644   -3.7569    1.4233 C   0  0  0  0  0  0  0  0  0  0  0  0
   -1.7412    4.5219    0.6089 C   0  0  0  0  0  0  0  0  0  0  0  0
    5.0218   -0.8608    0.1600 C   0  0  0  0  0  0  0  0  0  0  0  0
    4.9642    0.5927   -0.1622 C   0  0  0  0  0  0  0  0  0  0  0  0
   -1.8040    5.2942    1.8961 C   0  0  0  0  0  0  0  0  0  0  0  0
   -2.3856    5.2148   -0.5625 C   0  0  0  0  0  0  0  0  0  0  0  0
   -4.9311   -0.4648   -1.4321 H   0  0  0  0  0  0  0  0  0  0  0  0
   -5.7549   -1.5415   -0.3588 H   0  0  0  0  0  0  0  0  0  0  0  0
   -5.0086   -0.1567    0.3637 H   0  0  0  0  0  0  0  0  0  0  0  0
   -2.8705   -3.6065   -1.3274 H   0  0  0  0  0  0  0  0  0  0  0  0
   -3.4656   -2.3125   -2.3607 H   0  0  0  0  0  0  0  0  0  0  0  0
   -4.5998   -3.3186   -1.4564 H   0  0  0  0  0  0  0  0  0  0  0  0
   -3.8386   -1.7716    1.9956 H   0  0  0  0  0  0  0  0  0  0  0  0
   -1.8457    2.7314   -1.5313 H   0  0  0  0  0  0  0  0  0  0  0  0
   -0.1363    2.7672   -1.3166 H   0  0  0  0  0  0  0  0  0  0  0  0
   -0.6908    2.8839    1.3356 H   0  0  0  0  0  0  0  0  0  0  0  0
   -3.3650    1.9265   -0.4725 H   0  0  0  0  0  0  0  0  0  0  0  0
   -0.6003   -3.2632    0.9686 H   0  0  0  0  0  0  0  0  0  0  0  0
    3.9522   -2.6287    0.5029 H   0  0  0  0  0  0  0  0  0  0  0  0
    3.5850    2.2690   -0.5577 H   0  0  0  0  0  0  0  0  0  0  0  0
   -3.9496   -4.5218    0.6568 H   0  0  0  0  0  0  0  0  0  0  0  0
   -4.1126   -4.0804    2.4483 H   0  0  0  0  0  0  0  0  0  0  0  0
    0.8810   -3.4933   -0.1140 H   0  0  0  0  0  0  0  0  0  0  0  0
   -2.8449    5.4914    2.1716 H   0  0  0  0  0  0  0  0  0  0  0  0
   -1.3389    4.7426    2.7197 H   0  0  0  0  0  0  0  0  0  0  0  0
   -1.2800    6.2500    1.7956 H   0  0  0  0  0  0  0  0  0  0  0  0
   -2.1037    6.2740   -0.5713 H   0  0  0  0  0  0  0  0  0  0  0  0
   -3.4756    5.1549   -0.4800 H   0  0  0  0  0  0  0  0  0  0  0  0
   -2.0899    4.8177   -1.5361 H   0  0  0  0  0  0  0  0  0  0  0  0
    6.9269   -0.7029    0.2089 H   0  0  0  0  0  0  0  0  0  0  0  0
  1 13  1  0  0  0  0
  1 20  1  0  0  0  0
  2 10  1  0  0  0  0
  2 40  1  0  0  0  0
  3 11  1  0  0  0  0
  3 41  1  0  0  0  0
  4 18  1  0  0  0  0
  4 46  1  0  0  0  0
  5 26  1  0  0  0  0
  5 53  1  0  0  0  0
  6 27  2  0  0  0  0
  7  8  1  0  0  0  0
  7 14  1  0  0  0  0
  7 15  1  0  0  0  0
  7 16  1  0  0  0  0
  8 10  1  0  0  0  0
  8 11  2  0  0  0  0
  9 10  2  0  0  0  0
  9 13  1  0  0  0  0
  9 17  1  0  0  0  0
 11 12  1  0  0  0  0
 12 13  2  0  0  0  0
 12 18  1  0  0  0  0
 14 30  1  0  0  0  0
 14 31  1  0  0  0  0
 14 32  1  0  0  0  0
 15 33  1  0  0  0  0
 15 34  1  0  0  0  0
 15 35  1  0  0  0  0
 16 24  2  0  0  0  0
 16 36  1  0  0  0  0
 17 21  1  0  0  0  0
 17 37  1  0  0  0  0
 17 38  1  0  0  0  0
 18 19  2  0  0  0  0
 19 20  1  0  0  0  0
 19 22  1  0  0  0  0
 20 23  2  0  0  0  0
 21 25  2  0  0  0  0
 21 39  1  0  0  0  0
 22 26  2  0  0  0  0
 22 42  1  0  0  0  0
 23 27  1  0  0  0  0
 23 43  1  0  0  0  0
 24 44  1  0  0  0  0
 24 45  1  0  0  0  0
 25 28  1  0  0  0  0
 25 29  1  0  0  0  0
 26 27  1  0  0  0  0
 28 47  1  0  0  0  0
 28 48  1  0  0  0  0
 28 49  1  0  0  0  0
 29 50  1  0  0  0  0
 29 51  1  0  0  0  0
 29 52  1  0  0  0  0
M  END
> <PUBCHEM_COMPOUND_CID>
3996

> <PUBCHEM_CONFORMER_RMSD>
0.8

> <PUBCHEM_CONFORMER_DIVERSEORDER>
1
5
12
13
20
6
10
15
19
2
8
9
17
14
11
7
4
18
3
16

> <PUBCHEM_MMFF94_PARTIAL_CHARGES>
36
1 -0.16
10 0.08
11 0.08
12 0.03
13 0.08
16 -0.29
17 0.28
18 0.05
2 -0.53
20 0.08
21 -0.29
22 -0.15
23 -0.14
24 -0.3
25 -0.28
26 0.09
27 0.54
28 0.14
29 0.14
3 -0.53
36 0.15
39 0.15
4 -0.53
40 0.45
41 0.45
42 0.15
43 0.15
44 0.15
45 0.15
46 0.45
5 -0.53
53 0.45
6 -0.57
7 0.28
8 -0.14
9 -0.14

> <PUBCHEM_EFFECTIVE_ROTOR_COUNT>
4

> <PUBCHEM_PHARMACOPHORE_FEATURES>
12
1 1 acceptor
1 2 donor
1 24 hydrophobe
1 3 donor
1 4 donor
1 5 donor
1 6 acceptor
3 25 28 29 hydrophobe
3 7 14 15 hydrophobe
6 1 12 13 18 19 20 rings
6 19 20 22 23 26 27 rings
6 8 9 10 11 12 13 rings

> <PUBCHEM_HEAVY_ATOM_COUNT>
29

> <PUBCHEM_ATOM_DEF_STEREO_COUNT>
0

> <PUBCHEM_ATOM_UDEF_STEREO_COUNT>
0

> <PUBCHEM_BOND_DEF_STEREO_COUNT>
0

> <PUBCHEM_BOND_UDEF_STEREO_COUNT>
0

> <PUBCHEM_ISOTOPIC_ATOM_COUNT>
0

> <PUBCHEM_COMPONENT_COUNT>
1

> <PUBCHEM_CACTVS_TAUTO_COUNT>
114

> <PUBCHEM_CONFORMER_ID>
00000F9C00000001

> <PUBCHEM_MMFF94_ENERGY>
107.5726

> <PUBCHEM_FEATURE_SELFOVERLAP>
60.959

> <PUBCHEM_SHAPE_FINGERPRINT>
10411042 1 18338801087743565087
1100329 8 18410569574885494881
11115154 58 18116178644237266261
11578080 2 14854094808462146401
12107183 9 17692822892830766402
12293681 160 18122933029712774045
12390115 104 17974280225341113588
12403259 226 18054792780555378071
12516196 113 18337674092503854935
12788726 201 18267318684452502075
13140716 1 18411695461579582617
13540713 4 17553496782579994319
13540713 5 18129659829113824030
138480 1 15888559671430328085
14363568 33 17764860304252614321
14394314 77 18266452123076849169
14955137 171 18124022443371276875
15131766 46 15576712404490212288
15196674 1 18342460327023360734
15775530 1 17826494854360650791
16087824 20 18337957900734686005
17138139 8 17540297462920764525
17980427 26 17253427904074579381
19427546 62 17690560110258684173
19591789 44 18268993089821271790
21049683 271 17768803174387920925
21120745 212 18266156401414322364
21267235 1 18343015562772776966
21796203 349 17765960966916204627
23402539 116 18336271141157256447
23558518 356 18122623014002940039
23559900 14 18270972223598714668
23845131 108 17764862890240242665
23929065 36 18191051034458745848
283562 15 18413110562982707370
335352 9 18342178822150827407
350125 39 18339361993155221436
3886686 26 17622483787932203874
5104073 3 18412831274561270834
5171179 24 18046081358755885229
6004065 56 18048048367424543663
6058803 2 18272090560949233838
79837 15 18121497126780844704
9709674 26 18340486767817997678

> <PUBCHEM_SHAPE_MULTIPOLES>
561.59
10.34
6.38
1.05
14.37
10.07
0.25
-5.93
0.17
-8.55
2.39
-1.08
0.27
-0.27

> <PUBCHEM_SHAPE_SELFOVERLAP>
1223.073

> <PUBCHEM_SHAPE_VOLUME>
304

> <PUBCHEM_COORDINATE_TYPE>
2
5
10

$$$$

