854338
  -OEChem-06241222482D

 44 45  0     1  0  0  0  0  0999 V2000
    6.2619   -1.3106    0.0000 O   0  0  0  0  0  0  0  0  0  0  0  0
    4.9889    2.1767    0.0000 O   0  0  0  0  0  0  0  0  0  0  0  0
    4.9889   -1.3338    0.0000 O   0  0  0  0  0  0  0  0  0  0  0  0
    5.2619    0.4214    0.0000 N   0  0  0  0  0  0  0  0  0  0  0  0
    7.7619   -0.4446    0.0000 N   0  0  0  0  0  0  0  0  0  0  0  0
    6.2619    0.4214    0.0000 C   0  0  1  0  0  0  0  0  0  0  0  0
    6.7619    1.2874    0.0000 C   0  0  0  0  0  0  0  0  0  0  0  0
    8.2619   -1.3106    0.0000 C   0  0  0  0  0  0  0  0  0  0  0  0
    6.7619   -0.4446    0.0000 C   0  0  0  0  0  0  0  0  0  0  0  0
    7.7619    1.2874    0.0000 C   0  0  0  0  0  0  0  0  0  0  0  0
    6.2619    2.1535    0.0000 C   0  0  0  0  0  0  0  0  0  0  0  0
    4.6783    1.2261    0.0000 C   0  0  0  0  0  0  0  0  0  0  0  0
    4.6783   -0.3833    0.0000 C   0  0  0  0  0  0  0  0  0  0  0  0
    3.7320    0.9214    0.0000 C   0  0  0  0  0  0  0  0  0  0  0  0
    3.7320   -0.0786    0.0000 C   0  0  0  0  0  0  0  0  0  0  0  0
    8.7619   -2.1767    0.0000 C   0  0  0  0  0  0  0  0  0  0  0  0
    9.1279   -0.8106    0.0000 C   0  0  0  0  0  0  0  0  0  0  0  0
    7.3958   -1.8106    0.0000 C   0  0  0  0  0  0  0  0  0  0  0  0
    2.8660    1.4214    0.0000 C   0  0  0  0  0  0  0  0  0  0  0  0
    2.8660   -0.5786    0.0000 C   0  0  0  0  0  0  0  0  0  0  0  0
    2.0000    0.9214    0.0000 C   0  0  0  0  0  0  0  0  0  0  0  0
    2.0000   -0.0786    0.0000 C   0  0  0  0  0  0  0  0  0  0  0  0
    5.9519   -0.1155    0.0000 H   0  0  0  0  0  0  0  0  0  0  0  0
    6.1419    1.2874    0.0000 H   0  0  0  0  0  0  0  0  0  0  0  0
    8.0719    0.0923    0.0000 H   0  0  0  0  0  0  0  0  0  0  0  0
    7.7619    0.6674    0.0000 H   0  0  0  0  0  0  0  0  0  0  0  0
    6.7988    2.4635    0.0000 H   0  0  0  0  0  0  0  0  0  0  0  0
    5.9519    2.6904    0.0000 H   0  0  0  0  0  0  0  0  0  0  0  0
    5.7249    1.8435    0.0000 H   0  0  0  0  0  0  0  0  0  0  0  0
    8.3819    1.2874    0.0000 H   0  0  0  0  0  0  0  0  0  0  0  0
    7.7619    1.9074    0.0000 H   0  0  0  0  0  0  0  0  0  0  0  0
    7.0858   -1.2737    0.0000 H   0  0  0  0  0  0  0  0  0  0  0  0
    6.8589   -2.1206    0.0000 H   0  0  0  0  0  0  0  0  0  0  0  0
    8.2249   -2.4867    0.0000 H   0  0  0  0  0  0  0  0  0  0  0  0
    9.0719   -2.7136    0.0000 H   0  0  0  0  0  0  0  0  0  0  0  0
    9.2988   -1.8667    0.0000 H   0  0  0  0  0  0  0  0  0  0  0  0
    9.4379   -1.3476    0.0000 H   0  0  0  0  0  0  0  0  0  0  0  0
    9.6648   -0.5006    0.0000 H   0  0  0  0  0  0  0  0  0  0  0  0
    8.8179   -0.2737    0.0000 H   0  0  0  0  0  0  0  0  0  0  0  0
    7.7058   -2.3476    0.0000 H   0  0  0  0  0  0  0  0  0  0  0  0
    2.8660   -1.1986    0.0000 H   0  0  0  0  0  0  0  0  0  0  0  0
    2.8660    2.0414    0.0000 H   0  0  0  0  0  0  0  0  0  0  0  0
    1.4631   -0.3886    0.0000 H   0  0  0  0  0  0  0  0  0  0  0  0
    1.4631    1.2314    0.0000 H   0  0  0  0  0  0  0  0  0  0  0  0
  1  9  2  0  0  0  0
  2 12  2  0  0  0  0
  3 13  2  0  0  0  0
  4  6  1  0  0  0  0
  4 12  1  0  0  0  0
  4 13  1  0  0  0  0
  5  8  1  0  0  0  0
  5  9  1  0  0  0  0
  5 25  1  0  0  0  0
  6  7  1  0  0  0  0
  6  9  1  1  0  0  0
  6 23  1  0  0  0  0
  7 10  1  0  0  0  0
  7 11  1  0  0  0  0
  7 24  1  0  0  0  0
  8 16  1  0  0  0  0
  8 17  1  0  0  0  0
  8 18  1  0  0  0  0
 10 26  1  0  0  0  0
 10 30  1  0  0  0  0
 10 31  1  0  0  0  0
 11 27  1  0  0  0  0
 11 28  1  0  0  0  0
 11 29  1  0  0  0  0
 12 14  1  0  0  0  0
 13 15  1  0  0  0  0
 14 15  1  0  0  0  0
 14 19  2  0  0  0  0
 15 20  2  0  0  0  0
 16 34  1  0  0  0  0
 16 35  1  0  0  0  0
 16 36  1  0  0  0  0
 17 37  1  0  0  0  0
 17 38  1  0  0  0  0
 17 39  1  0  0  0  0
 18 32  1  0  0  0  0
 18 33  1  0  0  0  0
 18 40  1  0  0  0  0
 19 21  1  0  0  0  0
 19 42  1  0  0  0  0
 20 22  1  0  0  0  0
 20 41  1  0  0  0  0
 21 22  2  0  0  0  0
 21 44  1  0  0  0  0
 22 43  1  0  0  0  0
M  END
> <PUBCHEM_COMPOUND_CID>
854338

> <PUBCHEM_COMPOUND_CANONICALIZED>
1

> <PUBCHEM_CACTVS_COMPLEXITY>
455

> <PUBCHEM_CACTVS_HBOND_ACCEPTOR>
3

> <PUBCHEM_CACTVS_HBOND_DONOR>
1

> <PUBCHEM_CACTVS_ROTATABLE_BOND>
4

> <PUBCHEM_CACTVS_SUBSKEYS>
AAADceB7MAAAAAAAAAAAAAAAAAAAAWAAAAAwAAAAAAAAAFgBAAAAHgAQAAAADajBmAQyAIPAAACIAiFSEACCAAAkAAAIiAGIBMgIYDKAlTGUIQhgliCIiYcdiICOgAAAAAAQAAAAAAAAACAAAAAAAAAAAA==

> <PUBCHEM_IUPAC_OPENEYE_NAME>
(2S)-N-tert-butyl-2-(1,3-dioxoisoindolin-2-yl)-3-methyl-butanamide

> <PUBCHEM_IUPAC_CAS_NAME>
(2S)-N-tert-butyl-2-(1,3-dioxo-2-isoindolyl)-3-methylbutanamide

> <PUBCHEM_IUPAC_NAME>
(2S)-N-tert-butyl-2-(1,3-dioxoisoindol-2-yl)-3-methylbutanamide

> <PUBCHEM_IUPAC_SYSTEMATIC_NAME>
(2S)-2-[1,3-bis(oxidanylidene)isoindol-2-yl]-N-tert-butyl-3-methyl-butanamide

> <PUBCHEM_IUPAC_TRADITIONAL_NAME>
(2S)-N-tert-butyl-3-methyl-2-phthalimido-butyramide

> <PUBCHEM_IUPAC_INCHI>
InChI=1S/C17H22N2O3/c1-10(2)13(14(20)18-17(3,4)5)19-15(21)11-8-6-7-9-12(11)16(19)22/h6-10,13H,1-5H3,(H,18,20)/t13-/m0/s1

> <PUBCHEM_IUPAC_INCHIKEY>
RYJRJFLZSRBUOQ-ZDUSSCGKSA-N

> <PUBCHEM_XLOGP3_AA>
2.6

> <PUBCHEM_EXACT_MASS>
302.163043

> <PUBCHEM_MOLECULAR_FORMULA>
C17H22N2O3

> <PUBCHEM_MOLECULAR_WEIGHT>
302.36818

> <PUBCHEM_OPENEYE_CAN_SMILES>
CC(C)C(C(=O)NC(C)(C)C)N1C(=O)C2=CC=CC=C2C1=O

> <PUBCHEM_OPENEYE_ISO_SMILES>
CC(C)[C@@H](C(=O)NC(C)(C)C)N1C(=O)C2=CC=CC=C2C1=O

> <PUBCHEM_CACTVS_TPSA>
66.5

> <PUBCHEM_MONOISOTOPIC_WEIGHT>
302.163043

> <PUBCHEM_TOTAL_CHARGE>
0

> <PUBCHEM_HEAVY_ATOM_COUNT>
22

> <PUBCHEM_ATOM_DEF_STEREO_COUNT>
1

> <PUBCHEM_ATOM_UDEF_STEREO_COUNT>
0

> <PUBCHEM_BOND_DEF_STEREO_COUNT>
0

> <PUBCHEM_BOND_UDEF_STEREO_COUNT>
0

> <PUBCHEM_ISOTOPIC_ATOM_COUNT>
0

> <PUBCHEM_COMPONENT_COUNT>
1

> <PUBCHEM_CACTVS_TAUTO_COUNT>
2

> <PUBCHEM_COORDINATE_TYPE>
1
5
255

> <PUBCHEM_BONDANNOTATIONS>
14  15  8
14  19  8
15  20  8
19  21  8
20  22  8
21  22  8
6  9  5

$$$$

