17396351
  -OEChem-06241222563D

 37 39  0     1  0  0  0  0  0999 V2000
   -4.2836    0.8228    0.2940 S   0  0  0  0  0  0  0  0  0  0  0  0
    4.1409   -1.5716   -1.2446 O   0  0  0  0  0  0  0  0  0  0  0  0
    5.5031   -0.8427    1.1893 O   0  0  0  0  0  0  0  0  0  0  0  0
   -1.8606    2.5837    0.1920 O   0  0  0  0  0  0  0  0  0  0  0  0
   -6.6116   -2.2508    0.1001 O   0  5  0  0  0  0  0  0  0  0  0  0
   -6.9911   -0.1367    0.5736 O   0  0  0  0  0  0  0  0  0  0  0  0
   -0.3395    0.9501   -0.3480 N   0  0  0  0  0  0  0  0  0  0  0  0
   -6.1988   -1.0681    0.2584 N   0  3  0  0  0  0  0  0  0  0  0  0
    0.7976    1.8509   -0.3980 C   0  0  1  0  0  0  0  0  0  0  0  0
    2.0444    1.1348   -0.0007 C   0  0  0  0  0  0  0  0  0  0  0  0
    2.5309    0.0920   -0.7894 C   0  0  0  0  0  0  0  0  0  0  0  0
    3.7016   -0.5701   -0.4188 C   0  0  0  0  0  0  0  0  0  0  0  0
    4.3680   -0.2095    0.7550 C   0  0  0  0  0  0  0  0  0  0  0  0
    2.7249    1.5129    1.1572 C   0  0  0  0  0  0  0  0  0  0  0  0
    0.8886    2.5148   -1.7775 C   0  0  0  0  0  0  0  0  0  0  0  0
    3.8882    0.8423    1.5359 C   0  0  0  0  0  0  0  0  0  0  0  0
    5.4964   -1.9349   -0.9681 C   0  0  0  0  0  0  0  0  0  0  0  0
    5.7032   -2.0938    0.5257 C   0  0  0  0  0  0  0  0  0  0  0  0
   -1.6198    1.3992   -0.0478 C   0  0  0  0  0  0  0  0  0  0  0  0
   -2.6717    0.3729   -0.0683 C   0  0  0  0  0  0  0  0  0  0  0  0
   -2.5599   -0.9720   -0.3444 C   0  0  0  0  0  0  0  0  0  0  0  0
   -3.8143   -1.6423   -0.2575 C   0  0  0  0  0  0  0  0  0  0  0  0
   -4.8369   -0.7839    0.0819 C   0  0  0  0  0  0  0  0  0  0  0  0
    0.6060    2.6565    0.3228 H   0  0  0  0  0  0  0  0  0  0  0  0
    2.0124   -0.2093   -1.6962 H   0  0  0  0  0  0  0  0  0  0  0  0
    2.3594    2.3258    1.7792 H   0  0  0  0  0  0  0  0  0  0  0  0
   -0.0115    3.1037   -1.9856 H   0  0  0  0  0  0  0  0  0  0  0  0
    1.7521    3.1868   -1.8326 H   0  0  0  0  0  0  0  0  0  0  0  0
    0.9829    1.7770   -2.5820 H   0  0  0  0  0  0  0  0  0  0  0  0
   -0.1828   -0.0240   -0.5830 H   0  0  0  0  0  0  0  0  0  0  0  0
    4.4071    1.1374    2.4438 H   0  0  0  0  0  0  0  0  0  0  0  0
    6.1576   -1.1669   -1.3883 H   0  0  0  0  0  0  0  0  0  0  0  0
    5.6994   -2.8792   -1.4826 H   0  0  0  0  0  0  0  0  0  0  0  0
    6.7261   -2.4217    0.7351 H   0  0  0  0  0  0  0  0  0  0  0  0
    5.0127   -2.8314    0.9531 H   0  0  0  0  0  0  0  0  0  0  0  0
   -1.6389   -1.4798   -0.5983 H   0  0  0  0  0  0  0  0  0  0  0  0
   -3.9460   -2.7021   -0.4377 H   0  0  0  0  0  0  0  0  0  0  0  0
  1 20  1  0  0  0  0
  1 23  1  0  0  0  0
  2 12  1  0  0  0  0
  2 17  1  0  0  0  0
  3 13  1  0  0  0  0
  3 18  1  0  0  0  0
  4 19  2  0  0  0  0
  5  8  1  0  0  0  0
  6  8  2  0  0  0  0
  7  9  1  0  0  0  0
  7 19  1  0  0  0  0
  7 30  1  0  0  0  0
  8 23  1  0  0  0  0
  9 10  1  0  0  0  0
  9 15  1  0  0  0  0
  9 24  1  0  0  0  0
 10 11  2  0  0  0  0
 10 14  1  0  0  0  0
 11 12  1  0  0  0  0
 11 25  1  0  0  0  0
 12 13  2  0  0  0  0
 13 16  1  0  0  0  0
 14 16  2  0  0  0  0
 14 26  1  0  0  0  0
 15 27  1  0  0  0  0
 15 28  1  0  0  0  0
 15 29  1  0  0  0  0
 16 31  1  0  0  0  0
 17 18  1  0  0  0  0
 17 32  1  0  0  0  0
 17 33  1  0  0  0  0
 18 34  1  0  0  0  0
 18 35  1  0  0  0  0
 19 20  1  0  0  0  0
 20 21  2  0  0  0  0
 21 22  1  0  0  0  0
 21 36  1  0  0  0  0
 22 23  2  0  0  0  0
 22 37  1  0  0  0  0
M  CHG  2   5  -1   8   1
M  END
> <PUBCHEM_COMPOUND_CID>
17396351

> <PUBCHEM_CONFORMER_RMSD>
0.8

> <PUBCHEM_CONFORMER_DIVERSEORDER>
1
46
33
28
30
43
39
15
34
53
37
11
25
42
51
7
50
47
19
26
24
52
18
29
40
54
31
13
36
32
20
22
44
10
14
48
35
5
38
16
6
12
45
23
4
17
8
3
21
9
41
49
2
27

> <PUBCHEM_MMFF94_PARTIAL_CHARGES>
28
1 -0.08
10 -0.14
11 -0.15
12 0.08
13 0.08
14 -0.15
16 -0.15
17 0.28
18 0.28
19 0.71
2 -0.36
20 -0.05
21 -0.15
22 -0.15
23 0.12
25 0.15
26 0.15
3 -0.36
30 0.37
31 0.15
36 0.15
37 0.15
4 -0.57
5 -0.52
6 -0.52
7 -0.73
8 0.96
9 0.44

> <PUBCHEM_EFFECTIVE_ROTOR_COUNT>
5.8

> <PUBCHEM_PHARMACOPHORE_FEATURES>
10
1 2 acceptor
1 3 acceptor
1 4 acceptor
1 5 acceptor
1 5 anion
1 6 acceptor
1 7 donor
5 1 20 21 22 23 rings
6 10 11 12 13 14 16 rings
6 2 3 12 13 17 18 rings

> <PUBCHEM_HEAVY_ATOM_COUNT>
23

> <PUBCHEM_ATOM_DEF_STEREO_COUNT>
0

> <PUBCHEM_ATOM_UDEF_STEREO_COUNT>
1

> <PUBCHEM_BOND_DEF_STEREO_COUNT>
0

> <PUBCHEM_BOND_UDEF_STEREO_COUNT>
0

> <PUBCHEM_ISOTOPIC_ATOM_COUNT>
0

> <PUBCHEM_COMPONENT_COUNT>
1

> <PUBCHEM_CACTVS_TAUTO_COUNT>
2

> <PUBCHEM_CONFORMER_ID>
0109727F00000001

> <PUBCHEM_MMFF94_ENERGY>
55.7496

> <PUBCHEM_FEATURE_SELFOVERLAP>
50.866

> <PUBCHEM_SHAPE_FINGERPRINT>
10670039 82 7709196684454834010
10753850 27 18131917069654080371
11796584 16 17837780281175407178
12633257 1 16370730287848701645
13402501 40 18335700572243094686
13533116 47 18335420115073055681
13551218 46 18334012779176562759
13685833 64 18410854364916886595
1420 369 18412545405242029009
14211702 104 18196368127115989035
14216079 64 18410857672738309487
14341114 176 17749108902853075792
14341114 328 15430036530562200023
14347424 109 18113338604552765865
15183329 4 15769784576221914663
15188451 53 18333735715183772217
15475509 35 18269568277049169346
15575132 122 8718562597018388755
1768 124 18113621140666402135
1813 80 17989490710016887020
18222031 100 18060137652311538100
193927 3 18201431463464468865
19784866 240 18272084994302457109
1979834 28 17458334243366729950
20028762 73 18408040701867040823
20403669 9 18410009948740492382
21267235 1 18412539924953598987
21682296 61 18411131429827685347
21781051 124 17202751623857261731
21792934 111 18187361044167438097
22289505 5 11600005466547383846
23016692 55 17917992788824366605
23522609 53 18052785230715402236
23559900 14 18339927026294472773
25122255 55 18343014459409021123
270888 7 8142076568367931474
2838139 119 10591754360169559042
2916195 48 9006763302955231548
3004659 81 18131347496887547012
312425 54 17822008696912343803
316301 35 18410299138064139666
3472631 163 8718819899259189858
34797466 226 12535349017242807107
351380 3 18202847664278975123
4325135 7 18273213080927947804
4340502 62 14418124102916391717
465052 167 18410851040638664431
5104073 3 18040722514911942768
543368 44 9079117752917793587
559249 180 18341896329345605009
636775 8 17898281969894926550
7808743 9 8718536203615666428
7970288 3 18273216404178028907
960060 61 15770059423467975244

> <PUBCHEM_SHAPE_MULTIPOLES>
437.87
16.46
2.56
1.18
13.37
0.28
0.08
-13.26
-3.15
-0.35
0.52
-1.55
0.33
0.54

> <PUBCHEM_SHAPE_SELFOVERLAP>
933.625

> <PUBCHEM_SHAPE_VOLUME>
244.7

> <PUBCHEM_COORDINATE_TYPE>
2
5
10

$$$$

