47205308
  -OEChem-06241222582D

 30 31  0     0  0  0  0  0  0999 V2000
    3.7320    0.9503    0.0000 O   0  0  0  0  0  0  0  0  0  0  0  0
    2.0000   -2.0497    0.0000 O   0  0  0  0  0  0  0  0  0  0  0  0
    5.4641    0.9503    0.0000 N   0  0  0  0  0  0  0  0  0  0  0  0
    6.4347    3.4448    0.0000 N   0  0  0  0  0  0  0  0  0  0  0  0
    7.4128    3.6527    0.0000 N   0  0  0  0  0  0  0  0  0  0  0  0
    2.8660   -3.5497    0.0000 N   0  0  0  0  0  0  0  0  0  0  0  0
    5.4641    1.9503    0.0000 C   0  0  0  0  0  0  0  0  0  0  0  0
    6.3301    2.4503    0.0000 C   0  0  0  0  0  0  0  0  0  0  0  0
    4.5981   -0.5497    0.0000 C   0  0  0  0  0  0  0  0  0  0  0  0
    4.5981    0.4503    0.0000 C   0  0  0  0  0  0  0  0  0  0  0  0
    3.7320   -1.0497    0.0000 C   0  0  0  0  0  0  0  0  0  0  0  0
    3.7320   -2.0497    0.0000 C   0  0  0  0  0  0  0  0  0  0  0  0
    5.4641   -1.0497    0.0000 C   0  0  0  0  0  0  0  0  0  0  0  0
    7.2437    2.0436    0.0000 C   0  0  0  0  0  0  0  0  0  0  0  0
    4.5981   -2.5497    0.0000 C   0  0  0  0  0  0  0  0  0  0  0  0
    5.4641   -2.0497    0.0000 C   0  0  0  0  0  0  0  0  0  0  0  0
    7.9128    2.7867    0.0000 C   0  0  0  0  0  0  0  0  0  0  0  0
    2.8660   -2.5497    0.0000 C   0  0  0  0  0  0  0  0  0  0  0  0
    5.2520    2.5329    0.0000 H   0  0  0  0  0  0  0  0  0  0  0  0
    4.8535    1.8426    0.0000 H   0  0  0  0  0  0  0  0  0  0  0  0
    6.0010    0.6403    0.0000 H   0  0  0  0  0  0  0  0  0  0  0  0
    3.1951   -0.7397    0.0000 H   0  0  0  0  0  0  0  0  0  0  0  0
    6.0010   -0.7397    0.0000 H   0  0  0  0  0  0  0  0  0  0  0  0
    7.3726    1.4371    0.0000 H   0  0  0  0  0  0  0  0  0  0  0  0
    5.9739    3.8597    0.0000 H   0  0  0  0  0  0  0  0  0  0  0  0
    4.5981   -3.1697    0.0000 H   0  0  0  0  0  0  0  0  0  0  0  0
    6.0010   -2.3597    0.0000 H   0  0  0  0  0  0  0  0  0  0  0  0
    8.5294    2.7219    0.0000 H   0  0  0  0  0  0  0  0  0  0  0  0
    2.3291   -3.8597    0.0000 H   0  0  0  0  0  0  0  0  0  0  0  0
    3.4030   -3.8597    0.0000 H   0  0  0  0  0  0  0  0  0  0  0  0
  1 10  2  0  0  0  0
  2 18  2  0  0  0  0
  3  7  1  0  0  0  0
  3 10  1  0  0  0  0
  3 21  1  0  0  0  0
  4  5  1  0  0  0  0
  4  8  1  0  0  0  0
  4 25  1  0  0  0  0
  5 17  2  0  0  0  0
  6 18  1  0  0  0  0
  6 29  1  0  0  0  0
  6 30  1  0  0  0  0
  7  8  1  0  0  0  0
  7 19  1  0  0  0  0
  7 20  1  0  0  0  0
  8 14  2  0  0  0  0
  9 10  1  0  0  0  0
  9 11  1  0  0  0  0
  9 13  2  0  0  0  0
 11 12  2  0  0  0  0
 11 22  1  0  0  0  0
 12 15  1  0  0  0  0
 12 18  1  0  0  0  0
 13 16  1  0  0  0  0
 13 23  1  0  0  0  0
 14 17  1  0  0  0  0
 14 24  1  0  0  0  0
 15 16  2  0  0  0  0
 15 26  1  0  0  0  0
 16 27  1  0  0  0  0
 17 28  1  0  0  0  0
M  END
> <PUBCHEM_COMPOUND_CID>
47205308

> <PUBCHEM_COMPOUND_CANONICALIZED>
1

> <PUBCHEM_CACTVS_COMPLEXITY>
321

> <PUBCHEM_CACTVS_HBOND_ACCEPTOR>
3

> <PUBCHEM_CACTVS_HBOND_DONOR>
3

> <PUBCHEM_CACTVS_ROTATABLE_BOND>
4

> <PUBCHEM_CACTVS_SUBSKEYS>
AAADccBzsAAAAAAAAAAAAAAAAAAAAWAAAAAwAAAAAAAAAAABwAAAHgAYAAAADAjBngQ8gJLjAACqAzV3UACSBAAkggAYuaE4ZNgIYLKA1dGUpQhgngCIyYcYi0COAAACAAAAAAAAAAQAAAAAAAAAAAAAAA==

> <PUBCHEM_IUPAC_OPENEYE_NAME>
N3-(1H-pyrazol-5-ylmethyl)benzene-1,3-dicarboxamide

> <PUBCHEM_IUPAC_CAS_NAME>
N3-(1H-pyrazol-5-ylmethyl)benzene-1,3-dicarboxamide

> <PUBCHEM_IUPAC_NAME>
3-N-(1H-pyrazol-5-ylmethyl)benzene-1,3-dicarboxamide

> <PUBCHEM_IUPAC_SYSTEMATIC_NAME>
N3-(1H-pyrazol-5-ylmethyl)benzene-1,3-dicarboxamide

> <PUBCHEM_IUPAC_TRADITIONAL_NAME>
N'-(1H-pyrazol-5-ylmethyl)isophthalamide

> <PUBCHEM_IUPAC_INCHI>
InChI=1S/C12H12N4O2/c13-11(17)8-2-1-3-9(6-8)12(18)14-7-10-4-5-15-16-10/h1-6H,7H2,(H2,13,17)(H,14,18)(H,15,16)

> <PUBCHEM_IUPAC_INCHIKEY>
SKUDOZGGCJNAKI-UHFFFAOYSA-N

> <PUBCHEM_XLOGP3_AA>
-0.1

> <PUBCHEM_EXACT_MASS>
244.096026

> <PUBCHEM_MOLECULAR_FORMULA>
C12H12N4O2

> <PUBCHEM_MOLECULAR_WEIGHT>
244.24928

> <PUBCHEM_OPENEYE_CAN_SMILES>
C1=CC(=CC(=C1)C(=O)NCC2=CC=NN2)C(=O)N

> <PUBCHEM_OPENEYE_ISO_SMILES>
C1=CC(=CC(=C1)C(=O)NCC2=CC=NN2)C(=O)N

> <PUBCHEM_CACTVS_TPSA>
101

> <PUBCHEM_MONOISOTOPIC_WEIGHT>
244.096026

> <PUBCHEM_TOTAL_CHARGE>
0

> <PUBCHEM_HEAVY_ATOM_COUNT>
18

> <PUBCHEM_ATOM_DEF_STEREO_COUNT>
0

> <PUBCHEM_ATOM_UDEF_STEREO_COUNT>
0

> <PUBCHEM_BOND_DEF_STEREO_COUNT>
0

> <PUBCHEM_BOND_UDEF_STEREO_COUNT>
0

> <PUBCHEM_ISOTOPIC_ATOM_COUNT>
0

> <PUBCHEM_COMPONENT_COUNT>
1

> <PUBCHEM_CACTVS_TAUTO_COUNT>
8

> <PUBCHEM_COORDINATE_TYPE>
1
5
255

> <PUBCHEM_BONDANNOTATIONS>
11  12  8
12  15  8
13  16  8
14  17  8
15  16  8
4  5  8
4  8  8
5  17  8
8  14  8
9  11  8
9  13  8

$$$$

