4593
  -OEChem-06261200143D

 29 31  0     0  0  0  0  0  0999 V2000
    4.7564   -0.8113   -0.3107 O   0  0  0  0  0  0  0  0  0  0  0  0
   -2.8655    0.2541   -0.6481 N   0  0  0  0  0  0  0  0  0  0  0  0
    2.6391   -1.6997   -0.2039 N   0  0  0  0  0  0  0  0  0  0  0  0
   -4.8013    0.4506    0.4535 N   0  0  0  0  0  0  0  0  0  0  0  0
    4.4642    2.7929    0.0359 N   0  0  0  0  0  0  0  0  0  0  0  0
   -0.7099   -0.1459    0.2679 C   0  0  0  0  0  0  0  0  0  0  0  0
    0.7171   -0.3436    0.0962 C   0  0  0  0  0  0  0  0  0  0  0  0
    1.2674   -1.5700   -0.0692 C   0  0  0  0  0  0  0  0  0  0  0  0
   -1.4953    0.0632   -0.8104 C   0  0  0  0  0  0  0  0  0  0  0  0
   -3.5068    0.2450    0.5846 C   0  0  0  0  0  0  0  0  0  0  0  0
   -1.3674   -0.1599    1.5812 C   0  0  0  0  0  0  0  0  0  0  0  0
    1.6212    0.8058    0.1161 C   0  0  0  0  0  0  0  0  0  0  0  0
   -2.6928    0.0254    1.7301 C   0  0  0  0  0  0  0  0  0  0  0  0
   -3.8309    0.4797   -1.5961 C   0  0  0  0  0  0  0  0  0  0  0  0
    2.9513    0.7018   -0.0148 C   0  0  0  0  0  0  0  0  0  0  0  0
    0.5334   -2.8827   -0.1423 C   0  0  0  0  0  0  0  0  0  0  0  0
    3.5432   -0.6554   -0.1888 C   0  0  0  0  0  0  0  0  0  0  0  0
   -5.0077    0.5970   -0.8946 C   0  0  0  0  0  0  0  0  0  0  0  0
    3.7844    1.8532    0.0132 C   0  0  0  0  0  0  0  0  0  0  0  0
   -1.1143    0.0928   -1.8260 H   0  0  0  0  0  0  0  0  0  0  0  0
   -0.7444   -0.3279    2.4549 H   0  0  0  0  0  0  0  0  0  0  0  0
    1.1603    1.7829    0.2474 H   0  0  0  0  0  0  0  0  0  0  0  0
   -3.1495    0.0095    2.7134 H   0  0  0  0  0  0  0  0  0  0  0  0
    3.0076   -2.6393   -0.3252 H   0  0  0  0  0  0  0  0  0  0  0  0
   -3.6039    0.5356   -2.6519 H   0  0  0  0  0  0  0  0  0  0  0  0
   -0.5500   -2.7770   -0.0402 H   0  0  0  0  0  0  0  0  0  0  0  0
    0.8727   -3.5507    0.6569 H   0  0  0  0  0  0  0  0  0  0  0  0
    0.7249   -3.3706   -1.1043 H   0  0  0  0  0  0  0  0  0  0  0  0
   -5.9947    0.7794   -1.2937 H   0  0  0  0  0  0  0  0  0  0  0  0
  1 17  2  0  0  0  0
  2  9  1  0  0  0  0
  2 10  1  0  0  0  0
  2 14  1  0  0  0  0
  3  8  1  0  0  0  0
  3 17  1  0  0  0  0
  3 24  1  0  0  0  0
  4 10  2  0  0  0  0
  4 18  1  0  0  0  0
  5 19  3  0  0  0  0
  6  7  1  0  0  0  0
  6  9  2  0  0  0  0
  6 11  1  0  0  0  0
  7  8  2  0  0  0  0
  7 12  1  0  0  0  0
  8 16  1  0  0  0  0
  9 20  1  0  0  0  0
 10 13  1  0  0  0  0
 11 13  2  0  0  0  0
 11 21  1  0  0  0  0
 12 15  2  0  0  0  0
 12 22  1  0  0  0  0
 13 23  1  0  0  0  0
 14 18  2  0  0  0  0
 14 25  1  0  0  0  0
 15 17  1  0  0  0  0
 15 19  1  0  0  0  0
 16 26  1  0  0  0  0
 16 27  1  0  0  0  0
 16 28  1  0  0  0  0
 18 29  1  0  0  0  0
M  END
> <PUBCHEM_COMPOUND_CID>
4593

> <PUBCHEM_CONFORMER_RMSD>
0.6

> <PUBCHEM_CONFORMER_DIVERSEORDER>
1
3
4
2

> <PUBCHEM_MMFF94_PARTIAL_CHARGES>
24
1 -0.57
10 0.14
11 -0.15
12 -0.15
13 -0.11
14 -0.3
15 0.08
16 0.14
17 0.62
18 0.08
19 0.49
2 0.33
20 0.15
21 0.15
22 0.15
23 0.15
24 0.37
25 0.15
29 0.15
3 -0.54
4 -0.57
5 -0.56
8 -0.03
9 -0.18

> <PUBCHEM_EFFECTIVE_ROTOR_COUNT>
1

> <PUBCHEM_PHARMACOPHORE_FEATURES>
7
1 1 acceptor
1 3 donor
1 5 acceptor
3 2 4 10 cation
5 2 4 10 14 18 rings
6 2 6 9 10 11 13 rings
6 3 7 8 12 15 17 rings

> <PUBCHEM_HEAVY_ATOM_COUNT>
19

> <PUBCHEM_ATOM_DEF_STEREO_COUNT>
0

> <PUBCHEM_ATOM_UDEF_STEREO_COUNT>
0

> <PUBCHEM_BOND_DEF_STEREO_COUNT>
0

> <PUBCHEM_BOND_UDEF_STEREO_COUNT>
0

> <PUBCHEM_ISOTOPIC_ATOM_COUNT>
0

> <PUBCHEM_COMPONENT_COUNT>
1

> <PUBCHEM_CACTVS_TAUTO_COUNT>
2

> <PUBCHEM_CONFORMER_ID>
000011F100000001

> <PUBCHEM_MMFF94_ENERGY>
45.9244

> <PUBCHEM_FEATURE_SELFOVERLAP>
35.635

> <PUBCHEM_SHAPE_FINGERPRINT>
11471102 20 18410009957683458486
11543360 7 18335994112093565455
11725454 13 17845954947472992745
12119455 92 18272093789946969538
12236239 1 17530965821139312563
12403259 415 18201992218525935145
12616971 3 17894624881289906097
12633257 1 15554171384859147372
12730499 353 18272085020066986307
13583140 156 17846778490383096890
13631057 29 17899427389546667431
13760787 19 17967257524853072167
13760787 5 18113613491176082185
14251757 5 17243592883932937167
15219456 202 18131064926746858227
15342168 16 18269271266526824124
15375358 24 17989490718780569589
16752209 62 16226340334283994775
1813 80 17535455239391872998
18186145 218 18335130986633136062
192875 21 17967532389432061400
19862831 5 17676489453703704111
200 152 18114465655805930627
20279233 1 17846208999284160483
204376 136 18338515244494522186
20612939 158 18334573543028482212
20645477 70 18410291441039432046
21033648 29 17775570844387121173
21065201 7 16486968518322614611
21499 59 18335701611313424046
21709351 56 18189051065525287868
2255824 54 18261108638247024622
23402539 116 15936698154573172421
23557571 272 17346301714189663659
23559900 14 16988560268596028266
29717793 49 17458344186295004701
3060560 45 18336828684258418590
474 4 18334294249694444480
495365 180 18340498810873874288
5104073 3 18342737390519799123
633830 44 17968916674223115376
77492 1 17530962527020741955
8272917 22 18190174766619942967
9999458 23 18272932730910941294

> <PUBCHEM_SHAPE_MULTIPOLES>
365.22
9.87
2.02
1.19
1.73
0.4
0.23
-4.49
-1.65
-3.19
-0.16
1.57
-0.07
0.49

> <PUBCHEM_SHAPE_SELFOVERLAP>
808.666

> <PUBCHEM_SHAPE_VOLUME>
195.1

> <PUBCHEM_COORDINATE_TYPE>
2
5
10

$$$$

