17396026
  -OEChem-06241222532D

 49 51  0     1  0  0  0  0  0999 V2000
   10.3972   -0.0362    0.0000 O   0  0  0  0  0  0  0  0  0  0  0  0
   10.3972    2.0121    0.0000 O   0  0  0  0  0  0  0  0  0  0  0  0
    2.5369    0.4879    0.0000 O   0  0  0  0  0  0  0  0  0  0  0  0
    6.0010    0.4879    0.0000 N   0  0  3  0  0  0  0  0  0  0  0  0
    6.8671   -0.0121    0.0000 C   0  0  3  0  0  0  0  0  0  0  0  0
    6.0010    1.4879    0.0000 C   0  0  0  0  0  0  0  0  0  0  0  0
    7.7331    0.4879    0.0000 C   0  0  0  0  0  0  0  0  0  0  0  0
    6.8671    1.9879    0.0000 C   0  0  0  0  0  0  0  0  0  0  0  0
    7.7331    1.4879    0.0000 C   0  0  0  0  0  0  0  0  0  0  0  0
    5.1350   -0.0121    0.0000 C   0  0  0  0  0  0  0  0  0  0  0  0
    6.8671   -1.0121    0.0000 C   0  0  0  0  0  0  0  0  0  0  0  0
    4.2690    0.4879    0.0000 C   0  0  0  0  0  0  0  0  0  0  0  0
    8.6270   -0.0467    0.0000 C   0  0  0  0  0  0  0  0  0  0  0  0
    8.6270    2.0226    0.0000 C   0  0  0  0  0  0  0  0  0  0  0  0
    9.5331    0.4671    0.0000 C   0  0  0  0  0  0  0  0  0  0  0  0
    9.5331    1.5087    0.0000 C   0  0  0  0  0  0  0  0  0  0  0  0
    6.0010   -1.5121    0.0000 C   0  0  0  0  0  0  0  0  0  0  0  0
    7.7331   -1.5121    0.0000 C   0  0  0  0  0  0  0  0  0  0  0  0
    3.4030   -0.0121    0.0000 C   0  0  0  0  0  0  0  0  0  0  0  0
    6.0010   -2.5121    0.0000 C   0  0  0  0  0  0  0  0  0  0  0  0
    7.7331   -2.5121    0.0000 C   0  0  0  0  0  0  0  0  0  0  0  0
    6.8671   -3.0121    0.0000 C   0  0  0  0  0  0  0  0  0  0  0  0
   11.2651    0.4604    0.0000 C   0  0  0  0  0  0  0  0  0  0  0  0
   10.3933    3.0121    0.0000 C   0  0  0  0  0  0  0  0  0  0  0  0
    6.3301   -0.3221    0.0000 H   0  0  0  0  0  0  0  0  0  0  0  0
    5.7890    2.0705    0.0000 H   0  0  0  0  0  0  0  0  0  0  0  0
    5.3905    1.3803    0.0000 H   0  0  0  0  0  0  0  0  0  0  0  0
    7.2656    2.4629    0.0000 H   0  0  0  0  0  0  0  0  0  0  0  0
    6.4685    2.4629    0.0000 H   0  0  0  0  0  0  0  0  0  0  0  0
    4.7365   -0.4870    0.0000 H   0  0  0  0  0  0  0  0  0  0  0  0
    5.5335   -0.4870    0.0000 H   0  0  0  0  0  0  0  0  0  0  0  0
    4.6675    0.9629    0.0000 H   0  0  0  0  0  0  0  0  0  0  0  0
    3.8705    0.9629    0.0000 H   0  0  0  0  0  0  0  0  0  0  0  0
    8.6199   -0.6667    0.0000 H   0  0  0  0  0  0  0  0  0  0  0  0
    8.6199    2.6426    0.0000 H   0  0  0  0  0  0  0  0  0  0  0  0
    5.4641   -1.2021    0.0000 H   0  0  0  0  0  0  0  0  0  0  0  0
    8.2700   -1.2021    0.0000 H   0  0  0  0  0  0  0  0  0  0  0  0
    3.0044   -0.4870    0.0000 H   0  0  0  0  0  0  0  0  0  0  0  0
    3.8015   -0.4870    0.0000 H   0  0  0  0  0  0  0  0  0  0  0  0
    5.4641   -2.8221    0.0000 H   0  0  0  0  0  0  0  0  0  0  0  0
    8.2700   -2.8221    0.0000 H   0  0  0  0  0  0  0  0  0  0  0  0
    6.8671   -3.6321    0.0000 H   0  0  0  0  0  0  0  0  0  0  0  0
    2.0000    0.1779    0.0000 H   0  0  0  0  0  0  0  0  0  0  0  0
   11.5731   -0.0777    0.0000 H   0  0  0  0  0  0  0  0  0  0  0  0
   11.8033    0.7684    0.0000 H   0  0  0  0  0  0  0  0  0  0  0  0
   10.9572    0.9986    0.0000 H   0  0  0  0  0  0  0  0  0  0  0  0
   11.0133    3.0145    0.0000 H   0  0  0  0  0  0  0  0  0  0  0  0
   10.3909    3.6321    0.0000 H   0  0  0  0  0  0  0  0  0  0  0  0
    9.7733    3.0097    0.0000 H   0  0  0  0  0  0  0  0  0  0  0  0
  1 15  1  0  0  0  0
  1 23  1  0  0  0  0
  2 16  1  0  0  0  0
  2 24  1  0  0  0  0
  3 19  1  0  0  0  0
  3 43  1  0  0  0  0
  4  5  1  0  0  0  0
  4  6  1  0  0  0  0
  4 10  1  0  0  0  0
  5  7  1  0  0  0  0
  5 11  1  0  0  0  0
  5 25  1  0  0  0  0
  6  8  1  0  0  0  0
  6 26  1  0  0  0  0
  6 27  1  0  0  0  0
  7  9  1  0  0  0  0
  7 13  2  0  0  0  0
  8  9  1  0  0  0  0
  8 28  1  0  0  0  0
  8 29  1  0  0  0  0
  9 14  2  0  0  0  0
 10 12  1  0  0  0  0
 10 30  1  0  0  0  0
 10 31  1  0  0  0  0
 11 17  2  0  0  0  0
 11 18  1  0  0  0  0
 12 19  1  0  0  0  0
 12 32  1  0  0  0  0
 12 33  1  0  0  0  0
 13 15  1  0  0  0  0
 13 34  1  0  0  0  0
 14 16  1  0  0  0  0
 14 35  1  0  0  0  0
 15 16  2  0  0  0  0
 17 20  1  0  0  0  0
 17 36  1  0  0  0  0
 18 21  2  0  0  0  0
 18 37  1  0  0  0  0
 19 38  1  0  0  0  0
 19 39  1  0  0  0  0
 20 22  2  0  0  0  0
 20 40  1  0  0  0  0
 21 22  1  0  0  0  0
 21 41  1  0  0  0  0
 22 42  1  0  0  0  0
 23 44  1  0  0  0  0
 23 45  1  0  0  0  0
 23 46  1  0  0  0  0
 24 47  1  0  0  0  0
 24 48  1  0  0  0  0
 24 49  1  0  0  0  0
M  END
> <PUBCHEM_COMPOUND_CID>
17396026

> <PUBCHEM_COMPOUND_CANONICALIZED>
1

> <PUBCHEM_CACTVS_COMPLEXITY>
372

> <PUBCHEM_CACTVS_HBOND_ACCEPTOR>
4

> <PUBCHEM_CACTVS_HBOND_DONOR>
1

> <PUBCHEM_CACTVS_ROTATABLE_BOND>
6

> <PUBCHEM_CACTVS_SUBSKEYS>
AAADceB6MAAAAAAAAAAAAAAAAAAAAAAAAAA8YIAAAAAAAACxQAAAHgAACAAADCzhmAYyBoMABgCAAiBCAACCCAAgIAAIiAAOjIgNNiKEsRuEcCpmwBGKqAew0PMOoAABAAAQQABAAAIAACCAAAAAAAAAAA==

> <PUBCHEM_IUPAC_OPENEYE_NAME>
3-(6,7-dimethoxy-1-phenyl-3,4-dihydro-1H-isoquinolin-2-yl)propan-1-ol

> <PUBCHEM_IUPAC_CAS_NAME>
3-(6,7-dimethoxy-1-phenyl-3,4-dihydro-1H-isoquinolin-2-yl)-1-propanol

> <PUBCHEM_IUPAC_NAME>
3-(6,7-dimethoxy-1-phenyl-3,4-dihydro-1H-isoquinolin-2-yl)propan-1-ol

> <PUBCHEM_IUPAC_SYSTEMATIC_NAME>
3-(6,7-dimethoxy-1-phenyl-3,4-dihydro-1H-isoquinolin-2-yl)propan-1-ol

> <PUBCHEM_IUPAC_TRADITIONAL_NAME>
3-(6,7-dimethoxy-1-phenyl-3,4-dihydro-1H-isoquinolin-2-yl)propan-1-ol

> <PUBCHEM_IUPAC_INCHI>
InChI=1S/C20H25NO3/c1-23-18-13-16-9-11-21(10-6-12-22)20(15-7-4-3-5-8-15)17(16)14-19(18)24-2/h3-5,7-8,13-14,20,22H,6,9-12H2,1-2H3

> <PUBCHEM_IUPAC_INCHIKEY>
PVHAEPQAMHMQAJ-UHFFFAOYSA-N

> <PUBCHEM_XLOGP3_AA>
3.1

> <PUBCHEM_EXACT_MASS>
327.183444

> <PUBCHEM_MOLECULAR_FORMULA>
C20H25NO3

> <PUBCHEM_MOLECULAR_WEIGHT>
327.4174

> <PUBCHEM_OPENEYE_CAN_SMILES>
COC1=C(C=C2C(N(CCC2=C1)CCCO)C3=CC=CC=C3)OC

> <PUBCHEM_OPENEYE_ISO_SMILES>
COC1=C(C=C2C(N(CCC2=C1)CCCO)C3=CC=CC=C3)OC

> <PUBCHEM_CACTVS_TPSA>
41.9

> <PUBCHEM_MONOISOTOPIC_WEIGHT>
327.183444

> <PUBCHEM_TOTAL_CHARGE>
0

> <PUBCHEM_HEAVY_ATOM_COUNT>
24

> <PUBCHEM_ATOM_DEF_STEREO_COUNT>
0

> <PUBCHEM_ATOM_UDEF_STEREO_COUNT>
1

> <PUBCHEM_BOND_DEF_STEREO_COUNT>
0

> <PUBCHEM_BOND_UDEF_STEREO_COUNT>
0

> <PUBCHEM_ISOTOPIC_ATOM_COUNT>
0

> <PUBCHEM_COMPONENT_COUNT>
1

> <PUBCHEM_CACTVS_TAUTO_COUNT>
1

> <PUBCHEM_COORDINATE_TYPE>
1
5
255

> <PUBCHEM_BONDANNOTATIONS>
11  17  8
11  18  8
13  15  8
14  16  8
15  16  8
17  20  8
18  21  8
20  22  8
21  22  8
5  11  3
7  13  8
7  9  8
9  14  8

$$$$

