5413
  -OEChem-06261200403D

 29 28  0     0  0  0  0  0  0999 V2000
    0.0000    0.0000    0.0000 N   0  3  0  0  0  0  0  0  0  0  0  0
   -0.8788   -0.1960    1.2271 C   0  0  0  0  0  0  0  0  0  0  0  0
   -0.8785    0.1960   -1.2272 C   0  0  0  0  0  0  0  0  0  0  0  0
    0.8785   -1.2272   -0.1958 C   0  0  0  0  0  0  0  0  0  0  0  0
    0.8787    1.2271    0.1959 C   0  0  0  0  0  0  0  0  0  0  0  0
   -1.7499   -1.4168    1.0263 C   0  0  0  0  0  0  0  0  0  0  0  0
   -1.7493    1.4170   -1.0266 C   0  0  0  0  0  0  0  0  0  0  0  0
    1.7497   -1.0267   -1.4166 C   0  0  0  0  0  0  0  0  0  0  0  0
    1.7495    1.0266    1.4169 C   0  0  0  0  0  0  0  0  0  0  0  0
   -0.2381   -0.4101    2.0871 H   0  0  0  0  0  0  0  0  0  0  0  0
   -1.4436    0.7127    1.4485 H   0  0  0  0  0  0  0  0  0  0  0  0
   -0.2377    0.4100   -2.0872 H   0  0  0  0  0  0  0  0  0  0  0  0
   -1.4435   -0.7126   -1.4487 H   0  0  0  0  0  0  0  0  0  0  0  0
    1.4433   -1.4488    0.7129 H   0  0  0  0  0  0  0  0  0  0  0  0
    0.2378   -2.0872   -0.4099 H   0  0  0  0  0  0  0  0  0  0  0  0
    1.4437    1.4484   -0.7127 H   0  0  0  0  0  0  0  0  0  0  0  0
    0.2380    2.0871    0.4098 H   0  0  0  0  0  0  0  0  0  0  0  0
   -2.3762   -1.5289    1.9210 H   0  0  0  0  0  0  0  0  0  0  0  0
   -2.4555   -1.3362    0.1971 H   0  0  0  0  0  0  0  0  0  0  0  0
   -1.1996   -2.3571    0.9529 H   0  0  0  0  0  0  0  0  0  0  0  0
   -2.3755    1.5292   -1.9214 H   0  0  0  0  0  0  0  0  0  0  0  0
   -2.4549    1.3368   -0.1975 H   0  0  0  0  0  0  0  0  0  0  0  0
   -1.1988    2.3573   -0.9534 H   0  0  0  0  0  0  0  0  0  0  0  0
    2.3758   -1.9216   -1.5288 H   0  0  0  0  0  0  0  0  0  0  0  0
    1.1994   -0.9532   -2.3570 H   0  0  0  0  0  0  0  0  0  0  0  0
    2.4555   -0.1977   -1.3360 H   0  0  0  0  0  0  0  0  0  0  0  0
    2.3758    1.9214    1.5290 H   0  0  0  0  0  0  0  0  0  0  0  0
    1.1989    0.9533    2.3571 H   0  0  0  0  0  0  0  0  0  0  0  0
    2.4551    0.1974    1.3367 H   0  0  0  0  0  0  0  0  0  0  0  0
  1  2  1  0  0  0  0
  1  3  1  0  0  0  0
  1  4  1  0  0  0  0
  1  5  1  0  0  0  0
  2  6  1  0  0  0  0
  2 10  1  0  0  0  0
  2 11  1  0  0  0  0
  3  7  1  0  0  0  0
  3 12  1  0  0  0  0
  3 13  1  0  0  0  0
  4  8  1  0  0  0  0
  4 14  1  0  0  0  0
  4 15  1  0  0  0  0
  5  9  1  0  0  0  0
  5 16  1  0  0  0  0
  5 17  1  0  0  0  0
  6 18  1  0  0  0  0
  6 19  1  0  0  0  0
  6 20  1  0  0  0  0
  7 21  1  0  0  0  0
  7 22  1  0  0  0  0
  7 23  1  0  0  0  0
  8 24  1  0  0  0  0
  8 25  1  0  0  0  0
  8 26  1  0  0  0  0
  9 27  1  0  0  0  0
  9 28  1  0  0  0  0
  9 29  1  0  0  0  0
M  CHG  1   1   1
M  END
> <PUBCHEM_COMPOUND_CID>
5413

> <PUBCHEM_CONFORMER_RMSD>
0.6

> <PUBCHEM_CONFORMER_DIVERSEORDER>
2
1

> <PUBCHEM_MMFF94_PARTIAL_CHARGES>
5
1 -1.01
2 0.5
3 0.5
4 0.5
5 0.5

> <PUBCHEM_EFFECTIVE_ROTOR_COUNT>
4

> <PUBCHEM_PHARMACOPHORE_FEATURES>
1
1 1 cation

> <PUBCHEM_HEAVY_ATOM_COUNT>
9

> <PUBCHEM_ATOM_DEF_STEREO_COUNT>
0

> <PUBCHEM_ATOM_UDEF_STEREO_COUNT>
0

> <PUBCHEM_BOND_DEF_STEREO_COUNT>
0

> <PUBCHEM_BOND_UDEF_STEREO_COUNT>
0

> <PUBCHEM_ISOTOPIC_ATOM_COUNT>
0

> <PUBCHEM_COMPONENT_COUNT>
1

> <PUBCHEM_CACTVS_TAUTO_COUNT>
1

> <PUBCHEM_CONFORMER_ID>
0000152500000002

> <PUBCHEM_MMFF94_ENERGY>
36.9332

> <PUBCHEM_FEATURE_SELFOVERLAP>
5.074

> <PUBCHEM_SHAPE_FINGERPRINT>
12423570 1 5603284333918003372
13024252 1 16623826818144364968
137420 1 17314767780317683617
20711978 78 17749372759304284371
21040471 1 17559686233293635133
21930827 45 18130787914309863189
23211744 25 17908710870650532669
23211744 41 17909030691095586717
29004967 10 17824516764339121686
5084963 1 17753912518567177568
5943 1 16109425933543308418
68419 9 16056594365463684510

> <PUBCHEM_SHAPE_MULTIPOLES>
180.23
2.36
1.66
1.66
0
0
0
0
0
-0.24
0
0.24
0
1.24

> <PUBCHEM_SHAPE_SELFOVERLAP>
322.521

> <PUBCHEM_SHAPE_VOLUME>
117.6

> <PUBCHEM_COORDINATE_TYPE>
2
5
10

$$$$

