7846987
  -OEChem-06241222483D

 43 45  0     1  0  0  0  0  0999 V2000
    5.0677   -1.9046    0.0638 Cl  0  0  0  0  0  0  0  0  0  0  0  0
   -0.4395    3.1532   -1.3506 S   0  0  0  0  0  0  0  0  0  0  0  0
   -3.4021   -0.7375   -0.6727 O   0  0  0  0  0  0  0  0  0  0  0  0
   -3.0062    0.2375    1.3803 O   0  0  0  0  0  0  0  0  0  0  0  0
   -1.5616   -2.2609    1.6616 O   0  0  0  0  0  0  0  0  0  0  0  0
   -0.6364    2.0814    0.9871 N   0  0  0  0  0  0  0  0  0  0  0  0
   -0.8075   -1.9197   -0.5355 N   0  0  0  0  0  0  0  0  0  0  0  0
   -2.7953    2.8059    0.0306 C   0  0  0  0  0  0  0  0  0  0  0  0
   -3.5445    1.5982   -0.5626 C   0  0  0  0  0  0  0  0  0  0  0  0
   -1.3273    2.6266    0.0132 C   0  0  0  0  0  0  0  0  0  0  0  0
   -3.1783   -2.0314   -0.1033 C   0  0  2  0  0  0  0  0  0  0  0  0
    1.0158    2.6149   -0.5987 C   0  0  0  0  0  0  0  0  0  0  0  0
    0.7094    2.0676    0.6509 C   0  0  0  0  0  0  0  0  0  0  0  0
   -3.2822    0.3141    0.1910 C   0  0  0  0  0  0  0  0  0  0  0  0
   -1.7616   -2.0927    0.4620 C   0  0  0  0  0  0  0  0  0  0  0  0
   -3.4045   -3.0943   -1.1682 C   0  0  0  0  0  0  0  0  0  0  0  0
    2.3336    2.6729   -1.0800 C   0  0  0  0  0  0  0  0  0  0  0  0
    1.7611    1.5610    1.4448 C   0  0  0  0  0  0  0  0  0  0  0  0
    0.6005   -1.9156   -0.3919 C   0  0  0  0  0  0  0  0  0  0  0  0
    3.3557    2.1647   -0.2743 C   0  0  0  0  0  0  0  0  0  0  0  0
    3.0755    1.6155    0.9720 C   0  0  0  0  0  0  0  0  0  0  0  0
    1.3946   -1.7188   -1.5091 C   0  0  0  0  0  0  0  0  0  0  0  0
    1.1537   -2.1090    0.8630 C   0  0  0  0  0  0  0  0  0  0  0  0
    2.7823   -1.7153   -1.3675 C   0  0  0  0  0  0  0  0  0  0  0  0
    2.5414   -2.1053    1.0047 C   0  0  0  0  0  0  0  0  0  0  0  0
    3.3558   -1.9085   -0.1107 C   0  0  0  0  0  0  0  0  0  0  0  0
   -3.1200    2.9576    1.0680 H   0  0  0  0  0  0  0  0  0  0  0  0
   -3.0886    3.7113   -0.5148 H   0  0  0  0  0  0  0  0  0  0  0  0
   -3.2415    1.4655   -1.6084 H   0  0  0  0  0  0  0  0  0  0  0  0
   -4.6238    1.7838   -0.5411 H   0  0  0  0  0  0  0  0  0  0  0  0
   -3.8923   -2.1935    0.7140 H   0  0  0  0  0  0  0  0  0  0  0  0
   -3.1220   -4.0882   -0.8071 H   0  0  0  0  0  0  0  0  0  0  0  0
   -2.8483   -2.8857   -2.0880 H   0  0  0  0  0  0  0  0  0  0  0  0
   -4.4622   -3.1159   -1.4530 H   0  0  0  0  0  0  0  0  0  0  0  0
    2.5598    3.0994   -2.0524 H   0  0  0  0  0  0  0  0  0  0  0  0
    1.5534    1.1289    2.4196 H   0  0  0  0  0  0  0  0  0  0  0  0
   -1.1391   -1.7505   -1.4820 H   0  0  0  0  0  0  0  0  0  0  0  0
    4.3826    2.1982   -0.6285 H   0  0  0  0  0  0  0  0  0  0  0  0
    3.8833    1.2245    1.5845 H   0  0  0  0  0  0  0  0  0  0  0  0
    0.9580   -1.5658   -2.4920 H   0  0  0  0  0  0  0  0  0  0  0  0
    0.5930   -2.2683    1.7719 H   0  0  0  0  0  0  0  0  0  0  0  0
    3.4044   -1.5594   -2.2452 H   0  0  0  0  0  0  0  0  0  0  0  0
    2.9756   -2.2561    1.9898 H   0  0  0  0  0  0  0  0  0  0  0  0
  1 26  1  0  0  0  0
  2 10  1  0  0  0  0
  2 12  1  0  0  0  0
  3 11  1  0  0  0  0
  3 14  1  0  0  0  0
  4 14  2  0  0  0  0
  5 15  2  0  0  0  0
  6 10  2  0  0  0  0
  6 13  1  0  0  0  0
  7 15  1  0  0  0  0
  7 19  1  0  0  0  0
  7 37  1  0  0  0  0
  8  9  1  0  0  0  0
  8 10  1  0  0  0  0
  8 27  1  0  0  0  0
  8 28  1  0  0  0  0
  9 14  1  0  0  0  0
  9 29  1  0  0  0  0
  9 30  1  0  0  0  0
 11 15  1  0  0  0  0
 11 16  1  0  0  0  0
 11 31  1  0  0  0  0
 12 13  1  0  0  0  0
 12 17  2  0  0  0  0
 13 18  2  0  0  0  0
 16 32  1  0  0  0  0
 16 33  1  0  0  0  0
 16 34  1  0  0  0  0
 17 20  1  0  0  0  0
 17 35  1  0  0  0  0
 18 21  1  0  0  0  0
 18 36  1  0  0  0  0
 19 22  2  0  0  0  0
 19 23  1  0  0  0  0
 20 21  2  0  0  0  0
 20 38  1  0  0  0  0
 21 39  1  0  0  0  0
 22 24  1  0  0  0  0
 22 40  1  0  0  0  0
 23 25  2  0  0  0  0
 23 41  1  0  0  0  0
 24 26  2  0  0  0  0
 24 42  1  0  0  0  0
 25 26  1  0  0  0  0
 25 43  1  0  0  0  0
M  END
> <PUBCHEM_COMPOUND_CID>
7846987

> <PUBCHEM_CONFORMER_RMSD>
1

> <PUBCHEM_CONFORMER_DIVERSEORDER>
1
304
162
108
39
221
12
88
172
280
240
191
95
100
29
46
291
319
261
211
204
169
91
282
194
173
27
5
198
161
128
152
134
174
20
241
268
130
267
90
92
187
54
265
7
87
21
294
312
246
76
225
236
154
316
232
147
212
237
214
295
226
79
67
127
9
62
189
178
104
235
155
146
70
36
208
144
300
94
125
184
133
220
192
26
40
215
297
24
151
53
101
11
320
275
196
140
145
279
311
34
307
197
262
217
257
17
283
45
141
160
43
233
224
15
93
118
75
135
206
97
180
148
143
281
163
86
318
3
25
41
244
121
50
177
119
186
2
22
290
175
207
111
85
158
286
273
183
123
96
278
150
296
136
251
48
32
65
137
179
229
106
33
102
103
277
243
153
116
288
227
120
260
310
80
274
176
292
71
306
112
254
270
132
30
37
303
81
44
89
13
205
8
234
210
188
57
38
200
60
19
239
299
255
131
308
199
170
72
271
142
259
248
83
230
18
14
59
55
216
298
202
247
64
78
182
139
58
115
73
122
109
52
51
171
222
269
258
285
238
253
110
107
181
245
63
31
203
213
47
317
164
23
167
168
129
305
287
190
276
16
264
35
138
266
68
231
149
126
84
201
66
193
209
272
156
42
284
315
77
98
6
302
249
195
10
4
82
99
165
301
228
309
157
256
166
313
49
289
105
114
242
252
293
69
223
28
74
185
314
113
250
263
219
56
124
159
218
61
117

> <PUBCHEM_MMFF94_PARTIAL_CHARGES>
34
1 -0.18
10 0.2
11 0.34
12 0.04
13 0.23
14 0.66
15 0.57
17 -0.15
18 -0.15
19 0.12
2 -0.08
20 -0.15
21 -0.15
22 -0.15
23 -0.15
24 -0.15
25 -0.15
26 0.18
3 -0.43
35 0.15
36 0.15
37 0.37
38 0.15
39 0.15
4 -0.57
40 0.15
41 0.15
42 0.15
43 0.15
5 -0.57
6 -0.57
7 -0.55
8 0.18
9 0.06

> <PUBCHEM_EFFECTIVE_ROTOR_COUNT>
8

> <PUBCHEM_PHARMACOPHORE_FEATURES>
7
1 4 acceptor
1 5 acceptor
1 6 acceptor
1 7 donor
5 2 6 10 12 13 rings
6 12 13 17 18 20 21 rings
6 19 22 23 24 25 26 rings

> <PUBCHEM_HEAVY_ATOM_COUNT>
26

> <PUBCHEM_ATOM_DEF_STEREO_COUNT>
1

> <PUBCHEM_ATOM_UDEF_STEREO_COUNT>
0

> <PUBCHEM_BOND_DEF_STEREO_COUNT>
0

> <PUBCHEM_BOND_UDEF_STEREO_COUNT>
0

> <PUBCHEM_ISOTOPIC_ATOM_COUNT>
0

> <PUBCHEM_COMPONENT_COUNT>
1

> <PUBCHEM_CACTVS_TAUTO_COUNT>
4

> <PUBCHEM_CONFORMER_ID>
0077BC4B00000001

> <PUBCHEM_MMFF94_ENERGY>
53.1883

> <PUBCHEM_FEATURE_SELFOVERLAP>
35.595

> <PUBCHEM_SHAPE_FINGERPRINT>
104564 63 18265897956125585912
10616163 171 18338517417711368993
1100329 8 18338233898256151577
11513181 2 18259981544539617694
11578080 2 17631475456083919031
12156800 1 14106049974817469965
12553582 1 17690834983580231205
13122387 1 17762899174719132653
13140716 1 18409158918261403171
13402501 40 18192997238453319980
14117953 113 17043176532904625204
17093844 170 18339646646334066548
17357779 13 18189349024602207494
17492 54 17983008148341407500
18336668 15 18201431532642751868
19930381 70 17474113098814512687
20691752 17 17988646315451796697
20764821 26 18341336659998098965
20775438 99 17901146072465865975
20905425 154 18262233322355745669
21141583 151 17686054307138290182
21857420 4 14284749734072629974
238 59 17689722960891816839
3052486 1 18200037369025924946
338550 245 18342452659990006533
35225 105 17766861771675971150
463206 1 18408324388941293137
484985 159 15756345360990365291
539174 4 17827322572042159059

> <PUBCHEM_SHAPE_MULTIPOLES>
513.22
7.14
5.07
1.4
1.31
1.02
0.02
-2.83
-0.3
-0.58
-0.83
0.2
-0.09
-0.07

> <PUBCHEM_SHAPE_SELFOVERLAP>
1081.039

> <PUBCHEM_SHAPE_VOLUME>
290

> <PUBCHEM_COORDINATE_TYPE>
2
5
10

$$$$

