11712
  -OEChem-06261206013D

  6  5  0     0  0  0  0  0  0999 V2000
   -2.1447   -0.8479   -0.0002 Br  0  0  0  0  0  0  0  0  0  0  0  0
   -0.4759    1.8409    0.0000 Br  0  0  0  0  0  0  0  0  0  0  0  0
    2.4169   -0.1840   -0.0002 Br  0  0  0  0  0  0  0  0  0  0  0  0
   -0.4542   -0.0309    0.0001 C   0  0  0  0  0  0  0  0  0  0  0  0
    0.6579   -0.7781    0.0003 C   0  0  0  0  0  0  0  0  0  0  0  0
    0.6091   -1.8617    0.0003 H   0  0  0  0  0  0  0  0  0  0  0  0
  1  4  1  0  0  0  0
  2  4  1  0  0  0  0
  3  5  1  0  0  0  0
  4  5  2  0  0  0  0
  5  6  1  0  0  0  0
M  END
> <PUBCHEM_COMPOUND_CID>
11712

> <PUBCHEM_CONFORMER_RMSD>
0.4

> <PUBCHEM_CONFORMER_DIVERSEORDER>
1

> <PUBCHEM_MMFF94_PARTIAL_CHARGES>
6
1 -0.11
2 -0.11
3 -0.11
4 0.22
5 -0.04
6 0.15

> <PUBCHEM_EFFECTIVE_ROTOR_COUNT>
0

> <PUBCHEM_PHARMACOPHORE_FEATURES>
4
1 1 hydrophobe
1 2 hydrophobe
1 3 hydrophobe
3 1 2 4 hydrophobe

> <PUBCHEM_HEAVY_ATOM_COUNT>
5

> <PUBCHEM_ATOM_DEF_STEREO_COUNT>
0

> <PUBCHEM_ATOM_UDEF_STEREO_COUNT>
0

> <PUBCHEM_BOND_DEF_STEREO_COUNT>
0

> <PUBCHEM_BOND_UDEF_STEREO_COUNT>
0

> <PUBCHEM_ISOTOPIC_ATOM_COUNT>
0

> <PUBCHEM_COMPONENT_COUNT>
1

> <PUBCHEM_CACTVS_TAUTO_COUNT>
1

> <PUBCHEM_CONFORMER_ID>
00002DC000000001

> <PUBCHEM_MMFF94_ENERGY>
3.1463

> <PUBCHEM_FEATURE_SELFOVERLAP>
21.781

> <PUBCHEM_SHAPE_FINGERPRINT>
139733 1 9295294940881987395
16714656 1 18334574641986157014
20096714 4 17762617695679550184
21040471 1 17834113430611922944
23552449 1 18337676424570772368
29004967 10 18411415068686977115
5460574 1 9223239541514500834
5943 1 11595257538629980577

> <PUBCHEM_SHAPE_MULTIPOLES>
120.72
3.14
1.7
0.69
0.94
1.12
0
-1.18
0
-0.54
0
0
0.02
0

> <PUBCHEM_SHAPE_SELFOVERLAP>
179.549

> <PUBCHEM_SHAPE_VOLUME>
90.9

> <PUBCHEM_COORDINATE_TYPE>
2
5
10

$$$$

