9601
  -OEChem-06261203513D

 19 19  0     0  0  0  0  0  0999 V2000
    3.8318    0.4496   -0.0004 F   0  0  0  0  0  0  0  0  0  0  0  0
   -2.5987    1.4031   -0.0022 O   0  0  0  0  0  0  0  0  0  0  0  0
   -1.5682   -0.7174    0.0005 N   0  0  0  0  0  0  0  0  0  0  0  0
   -0.2045   -0.4227    0.0010 C   0  0  0  0  0  0  0  0  0  0  0  0
    0.2219    0.9053    0.0016 C   0  0  0  0  0  0  0  0  0  0  0  0
    0.7323   -1.4562   -0.0003 C   0  0  0  0  0  0  0  0  0  0  0  0
    1.5853    1.1999    0.0008 C   0  0  0  0  0  0  0  0  0  0  0  0
    2.0958   -1.1617   -0.0010 C   0  0  0  0  0  0  0  0  0  0  0  0
    2.5223    0.1665   -0.0005 C   0  0  0  0  0  0  0  0  0  0  0  0
   -2.6467    0.1773    0.0005 C   0  0  0  0  0  0  0  0  0  0  0  0
   -3.9713   -0.5437   -0.0001 C   0  0  0  0  0  0  0  0  0  0  0  0
   -0.4424    1.7581    0.0029 H   0  0  0  0  0  0  0  0  0  0  0  0
    0.4143   -2.4957   -0.0009 H   0  0  0  0  0  0  0  0  0  0  0  0
   -1.7982   -1.7091    0.0002 H   0  0  0  0  0  0  0  0  0  0  0  0
    1.9191    2.2335    0.0014 H   0  0  0  0  0  0  0  0  0  0  0  0
    2.8256   -1.9659   -0.0019 H   0  0  0  0  0  0  0  0  0  0  0  0
   -4.0631   -1.1468   -0.9078 H   0  0  0  0  0  0  0  0  0  0  0  0
   -4.7886    0.1822    0.0288 H   0  0  0  0  0  0  0  0  0  0  0  0
   -4.0419   -1.1916    0.8782 H   0  0  0  0  0  0  0  0  0  0  0  0
  1  9  1  0  0  0  0
  2 10  2  0  0  0  0
  3  4  1  0  0  0  0
  3 10  1  0  0  0  0
  3 14  1  0  0  0  0
  4  5  2  0  0  0  0
  4  6  1  0  0  0  0
  5  7  1  0  0  0  0
  5 12  1  0  0  0  0
  6  8  2  0  0  0  0
  6 13  1  0  0  0  0
  7  9  2  0  0  0  0
  7 15  1  0  0  0  0
  8  9  1  0  0  0  0
  8 16  1  0  0  0  0
 10 11  1  0  0  0  0
 11 17  1  0  0  0  0
 11 18  1  0  0  0  0
 11 19  1  0  0  0  0
M  END
> <PUBCHEM_COMPOUND_CID>
9601

> <PUBCHEM_CONFORMER_RMSD>
0.4

> <PUBCHEM_CONFORMER_DIVERSEORDER>
1
2

> <PUBCHEM_MMFF94_PARTIAL_CHARGES>
16
1 -0.19
10 0.57
11 0.06
12 0.15
13 0.15
14 0.37
15 0.15
16 0.15
2 -0.57
3 -0.55
4 0.12
5 -0.15
6 -0.15
7 -0.15
8 -0.15
9 0.19

> <PUBCHEM_EFFECTIVE_ROTOR_COUNT>
2

> <PUBCHEM_PHARMACOPHORE_FEATURES>
3
1 2 acceptor
1 3 donor
6 4 5 6 7 8 9 rings

> <PUBCHEM_HEAVY_ATOM_COUNT>
11

> <PUBCHEM_ATOM_DEF_STEREO_COUNT>
0

> <PUBCHEM_ATOM_UDEF_STEREO_COUNT>
0

> <PUBCHEM_BOND_DEF_STEREO_COUNT>
0

> <PUBCHEM_BOND_UDEF_STEREO_COUNT>
0

> <PUBCHEM_ISOTOPIC_ATOM_COUNT>
0

> <PUBCHEM_COMPONENT_COUNT>
1

> <PUBCHEM_CACTVS_TAUTO_COUNT>
2

> <PUBCHEM_CONFORMER_ID>
0000258100000001

> <PUBCHEM_MMFF94_ENERGY>
27.3278

> <PUBCHEM_FEATURE_SELFOVERLAP>
15.223

> <PUBCHEM_SHAPE_FINGERPRINT>
10219947 1 18202844344390444532
11062470 55 18410011030918899834
12032990 46 18409441527093597022
12932764 1 17240495714279846179
13380535 76 18412544284271915250
14144814 61 18410292536203059235
14325111 11 18410574010979342145
15775835 57 18260264131680235261
16945 1 18410855438753656038
17844478 74 18131344233139780061
20201158 50 18342174466557785355
20645477 70 18337678632585136351
20871998 22 17974004248022924646
21040471 1 18338797784897389826
23235685 24 18411987935935896208
23402539 116 18340216210884867767
23402655 69 18336274526239883917
2748010 2 18194404617626338702
3248919 1 16844998091834471739
528886 8 18410016515808531674
53812653 166 18334019350339128904

> <PUBCHEM_SHAPE_MULTIPOLES>
208.25
5.81
1.4
0.59
2.67
0.01
0
-0.26
0
-0.2
0
0
0.01
0

> <PUBCHEM_SHAPE_SELFOVERLAP>
430.143

> <PUBCHEM_SHAPE_VOLUME>
119.5

> <PUBCHEM_COORDINATE_TYPE>
2
5
10

$$$$

