854109
  -OEChem-06241222472D

 40 43  0     0  0  0  0  0  0999 V2000
    9.8544   -1.0142    0.0000 O   0  0  0  0  0  0  0  0  0  0  0  0
    6.3243   -1.0384    0.0000 O   0  0  0  0  0  0  0  0  0  0  0  0
   11.5865   -1.0142    0.0000 O   0  0  0  0  0  0  0  0  0  0  0  0
    8.9884    0.4858    0.0000 C   0  0  0  0  0  0  0  0  0  0  0  0
    9.8544    0.9858    0.0000 C   0  0  0  0  0  0  0  0  0  0  0  0
    8.9884   -0.5142    0.0000 C   0  0  0  0  0  0  0  0  0  0  0  0
   10.7205    0.4858    0.0000 C   0  0  0  0  0  0  0  0  0  0  0  0
    8.0945    1.0204    0.0000 C   0  0  0  0  0  0  0  0  0  0  0  0
    7.1884   -0.5350    0.0000 C   0  0  0  0  0  0  0  0  0  0  0  0
    8.0945   -1.0489    0.0000 C   0  0  0  0  0  0  0  0  0  0  0  0
    9.8384    2.0273    0.0000 C   0  0  0  0  0  0  0  0  0  0  0  0
    7.1884    0.5066    0.0000 C   0  0  0  0  0  0  0  0  0  0  0  0
   10.7205   -0.5142    0.0000 C   0  0  0  0  0  0  0  0  0  0  0  0
    5.4564   -0.5417    0.0000 C   0  0  0  0  0  0  0  0  0  0  0  0
   11.6305    0.9926    0.0000 C   0  0  0  0  0  0  0  0  0  0  0  0
    4.5923   -1.0450    0.0000 C   0  0  0  0  0  0  0  0  0  0  0  0
   10.7364    2.5550    0.0000 C   0  0  0  0  0  0  0  0  0  0  0  0
   11.6385    2.0342    0.0000 C   0  0  0  0  0  0  0  0  0  0  0  0
    3.7243   -0.5484    0.0000 C   0  0  0  0  0  0  0  0  0  0  0  0
    4.5961   -2.0450    0.0000 C   0  0  0  0  0  0  0  0  0  0  0  0
    2.8641   -2.0517    0.0000 C   0  0  0  0  0  0  0  0  0  0  0  0
    2.8602   -1.0517    0.0000 C   0  0  0  0  0  0  0  0  0  0  0  0
    3.7320   -2.5484    0.0000 C   0  0  0  0  0  0  0  0  0  0  0  0
    2.0000   -2.5550    0.0000 C   0  0  0  0  0  0  0  0  0  0  0  0
    8.1016    1.6404    0.0000 H   0  0  0  0  0  0  0  0  0  0  0  0
    8.1016   -1.6688    0.0000 H   0  0  0  0  0  0  0  0  0  0  0  0
    9.2979    2.3311    0.0000 H   0  0  0  0  0  0  0  0  0  0  0  0
    6.6527    0.8187    0.0000 H   0  0  0  0  0  0  0  0  0  0  0  0
    5.8531   -0.0652    0.0000 H   0  0  0  0  0  0  0  0  0  0  0  0
    5.0560   -0.0683    0.0000 H   0  0  0  0  0  0  0  0  0  0  0  0
   12.1638    0.6764    0.0000 H   0  0  0  0  0  0  0  0  0  0  0  0
   10.7340    3.1750    0.0000 H   0  0  0  0  0  0  0  0  0  0  0  0
   12.1766    2.3422    0.0000 H   0  0  0  0  0  0  0  0  0  0  0  0
    3.7219    0.0716    0.0000 H   0  0  0  0  0  0  0  0  0  0  0  0
    5.1343   -2.3530    0.0000 H   0  0  0  0  0  0  0  0  0  0  0  0
    2.3221   -0.7438    0.0000 H   0  0  0  0  0  0  0  0  0  0  0  0
    3.7344   -3.1684    0.0000 H   0  0  0  0  0  0  0  0  0  0  0  0
    1.6879   -2.0193    0.0000 H   0  0  0  0  0  0  0  0  0  0  0  0
    1.4643   -2.8671    0.0000 H   0  0  0  0  0  0  0  0  0  0  0  0
    2.3121   -3.0908    0.0000 H   0  0  0  0  0  0  0  0  0  0  0  0
  1  6  1  0  0  0  0
  1 13  1  0  0  0  0
  2  9  1  0  0  0  0
  2 14  1  0  0  0  0
  3 13  2  0  0  0  0
  4  5  1  0  0  0  0
  4  6  2  0  0  0  0
  4  8  1  0  0  0  0
  5  7  1  0  0  0  0
  5 11  2  0  0  0  0
  6 10  1  0  0  0  0
  7 13  1  0  0  0  0
  7 15  2  0  0  0  0
  8 12  2  0  0  0  0
  8 25  1  0  0  0  0
  9 10  2  0  0  0  0
  9 12  1  0  0  0  0
 10 26  1  0  0  0  0
 11 17  1  0  0  0  0
 11 27  1  0  0  0  0
 12 28  1  0  0  0  0
 14 16  1  0  0  0  0
 14 29  1  0  0  0  0
 14 30  1  0  0  0  0
 15 18  1  0  0  0  0
 15 31  1  0  0  0  0
 16 19  2  0  0  0  0
 16 20  1  0  0  0  0
 17 18  2  0  0  0  0
 17 32  1  0  0  0  0
 18 33  1  0  0  0  0
 19 22  1  0  0  0  0
 19 34  1  0  0  0  0
 20 23  2  0  0  0  0
 20 35  1  0  0  0  0
 21 22  2  0  0  0  0
 21 23  1  0  0  0  0
 21 24  1  0  0  0  0
 22 36  1  0  0  0  0
 23 37  1  0  0  0  0
 24 38  1  0  0  0  0
 24 39  1  0  0  0  0
 24 40  1  0  0  0  0
M  END
> <PUBCHEM_COMPOUND_CID>
854109

> <PUBCHEM_COMPOUND_CANONICALIZED>
1

> <PUBCHEM_CACTVS_COMPLEXITY>
440

> <PUBCHEM_CACTVS_HBOND_ACCEPTOR>
3

> <PUBCHEM_CACTVS_HBOND_DONOR>
0

> <PUBCHEM_CACTVS_ROTATABLE_BOND>
3

> <PUBCHEM_CACTVS_SUBSKEYS>
AAADceB4MAAAAAAAAAAAAAAAAAAAAAAAAAA0YMEAAAAAAACRUAAAGgAAAAAADASgmAIyDoAABACIAiDSCAACCAAkIAAIiAEGCMgMJzKENRqCOyClwBUIqYeI7PzO4AAACAAYAADAAAAQADAAAAAAAAAAAA==

> <PUBCHEM_IUPAC_OPENEYE_NAME>
3-(p-tolylmethoxy)benzo[c]chromen-6-one

> <PUBCHEM_IUPAC_CAS_NAME>
3-[(4-methylphenyl)methoxy]-6-benzo[c][1]benzopyranone

> <PUBCHEM_IUPAC_NAME>
3-[(4-methylphenyl)methoxy]benzo[c]chromen-6-one

> <PUBCHEM_IUPAC_SYSTEMATIC_NAME>
3-[(4-methylphenyl)methoxy]benzo[c]chromen-6-one

> <PUBCHEM_IUPAC_TRADITIONAL_NAME>
3-(4-methylbenzyl)oxybenzo[c]chromen-6-one

> <PUBCHEM_IUPAC_INCHI>
InChI=1S/C21H16O3/c1-14-6-8-15(9-7-14)13-23-16-10-11-18-17-4-2-3-5-19(17)21(22)24-20(18)12-16/h2-12H,13H2,1H3

> <PUBCHEM_IUPAC_INCHIKEY>
ZSIOQCHTPDFSDU-UHFFFAOYSA-N

> <PUBCHEM_XLOGP3_AA>
4.9

> <PUBCHEM_EXACT_MASS>
316.109944

> <PUBCHEM_MOLECULAR_FORMULA>
C21H16O3

> <PUBCHEM_MOLECULAR_WEIGHT>
316.34994

> <PUBCHEM_OPENEYE_CAN_SMILES>
CC1=CC=C(C=C1)COC2=CC3=C(C=C2)C4=CC=CC=C4C(=O)O3

> <PUBCHEM_OPENEYE_ISO_SMILES>
CC1=CC=C(C=C1)COC2=CC3=C(C=C2)C4=CC=CC=C4C(=O)O3

> <PUBCHEM_CACTVS_TPSA>
35.5

> <PUBCHEM_MONOISOTOPIC_WEIGHT>
316.109944

> <PUBCHEM_TOTAL_CHARGE>
0

> <PUBCHEM_HEAVY_ATOM_COUNT>
24

> <PUBCHEM_ATOM_DEF_STEREO_COUNT>
0

> <PUBCHEM_ATOM_UDEF_STEREO_COUNT>
0

> <PUBCHEM_BOND_DEF_STEREO_COUNT>
0

> <PUBCHEM_BOND_UDEF_STEREO_COUNT>
0

> <PUBCHEM_ISOTOPIC_ATOM_COUNT>
0

> <PUBCHEM_COMPONENT_COUNT>
1

> <PUBCHEM_CACTVS_TAUTO_COUNT>
1

> <PUBCHEM_COORDINATE_TYPE>
1
5
255

> <PUBCHEM_BONDANNOTATIONS>
1  13  8
1  6  8
11  17  8
15  18  8
16  19  8
16  20  8
17  18  8
19  22  8
20  23  8
21  22  8
21  23  8
4  5  8
4  6  8
4  8  8
5  11  8
5  7  8
6  10  8
7  13  8
7  15  8
8  12  8
9  10  8
9  12  8

$$$$

