9095
  -OEChem-06261203243D

 56 60  0     0  0  0  0  0  0999 V2000
    0.3920    2.1898    0.4408 Si  0  0  0  0  0  0  0  0  0  0  0  0
    2.1943   -0.3922    0.4508 Si  0  0  0  0  0  0  0  0  0  0  0  0
   -2.1935    0.3932    0.4519 Si  0  0  0  0  0  0  0  0  0  0  0  0
   -0.3916   -2.1891    0.4397 Si  0  0  0  0  0  0  0  0  0  0  0  0
    1.6051    1.1176    0.8176 O   0  0  0  0  0  0  0  0  0  0  0  0
   -1.1187    1.6076    0.8158 O   0  0  0  0  0  0  0  0  0  0  0  0
    1.1193   -1.6070    0.8133 O   0  0  0  0  0  0  0  0  0  0  0  0
   -1.6043   -1.1171    0.8176 O   0  0  0  0  0  0  0  0  0  0  0  0
    0.7202    3.9402    1.2121 C   0  0  0  0  0  0  0  0  0  0  0  0
    0.5062    2.8746   -1.3651 C   0  0  0  0  0  0  0  0  0  0  0  0
    3.9345   -0.7176    1.2464 C   0  0  0  0  0  0  0  0  0  0  0  0
    2.9043   -0.5060   -1.3454 C   0  0  0  0  0  0  0  0  0  0  0  0
   -3.9344    0.7167    1.2465 C   0  0  0  0  0  0  0  0  0  0  0  0
   -2.9022    0.5079   -1.3447 C   0  0  0  0  0  0  0  0  0  0  0  0
   -0.5079   -2.8749   -1.3655 C   0  0  0  0  0  0  0  0  0  0  0  0
   -0.7192   -3.9391    1.2125 C   0  0  0  0  0  0  0  0  0  0  0  0
    0.5593    4.9278    0.0412 C   0  0  0  0  0  0  0  0  0  0  0  0
    1.1388    4.2715   -1.2213 C   0  0  0  0  0  0  0  0  0  0  0  0
    4.9378   -0.5563    0.0892 C   0  0  0  0  0  0  0  0  0  0  0  0
    4.2995   -1.1375   -1.1819 C   0  0  0  0  0  0  0  0  0  0  0  0
   -4.9366    0.5525    0.0887 C   0  0  0  0  0  0  0  0  0  0  0  0
   -4.2992    1.1355   -1.1818 C   0  0  0  0  0  0  0  0  0  0  0  0
   -1.1424   -4.2709   -1.2201 C   0  0  0  0  0  0  0  0  0  0  0  0
   -0.5614   -4.9273    0.0417 C   0  0  0  0  0  0  0  0  0  0  0  0
    1.7457    3.9599    1.5950 H   0  0  0  0  0  0  0  0  0  0  0  0
    0.0224    4.1531    2.0263 H   0  0  0  0  0  0  0  0  0  0  0  0
   -0.5073    2.9573   -1.7703 H   0  0  0  0  0  0  0  0  0  0  0  0
    1.1002    2.2218   -2.0097 H   0  0  0  0  0  0  0  0  0  0  0  0
    3.9502   -1.7428    1.6303 H   0  0  0  0  0  0  0  0  0  0  0  0
    4.1352   -0.0189    2.0630 H   0  0  0  0  0  0  0  0  0  0  0  0
    2.9916    0.5076   -1.7496 H   0  0  0  0  0  0  0  0  0  0  0  0
    2.2610   -1.1007   -1.9987 H   0  0  0  0  0  0  0  0  0  0  0  0
   -3.9520    1.7422    1.6293 H   0  0  0  0  0  0  0  0  0  0  0  0
   -4.1345    0.0184    2.0636 H   0  0  0  0  0  0  0  0  0  0  0  0
   -2.9866   -0.5053   -1.7505 H   0  0  0  0  0  0  0  0  0  0  0  0
   -2.2599    1.1051   -1.9967 H   0  0  0  0  0  0  0  0  0  0  0  0
    0.5052   -2.9591   -1.7714 H   0  0  0  0  0  0  0  0  0  0  0  0
   -1.1015   -2.2219   -2.0101 H   0  0  0  0  0  0  0  0  0  0  0  0
   -1.7439   -3.9580    1.5976 H   0  0  0  0  0  0  0  0  0  0  0  0
   -0.0197   -4.1521    2.0252 H   0  0  0  0  0  0  0  0  0  0  0  0
    1.0627    5.8746    0.2628 H   0  0  0  0  0  0  0  0  0  0  0  0
   -0.5039    5.1511   -0.1173 H   0  0  0  0  0  0  0  0  0  0  0  0
    0.9392    4.8789   -2.1103 H   0  0  0  0  0  0  0  0  0  0  0  0
    2.2285    4.1826   -1.1222 H   0  0  0  0  0  0  0  0  0  0  0  0
    5.8821   -1.0585    0.3239 H   0  0  0  0  0  0  0  0  0  0  0  0
    5.1621    0.5070   -0.0670 H   0  0  0  0  0  0  0  0  0  0  0  0
    4.9189   -0.9380   -2.0625 H   0  0  0  0  0  0  0  0  0  0  0  0
    4.2101   -2.2272   -1.0831 H   0  0  0  0  0  0  0  0  0  0  0  0
   -5.8823    1.0522    0.3230 H   0  0  0  0  0  0  0  0  0  0  0  0
   -5.1579   -0.5113   -0.0675 H   0  0  0  0  0  0  0  0  0  0  0  0
   -4.9176    0.9346   -2.0629 H   0  0  0  0  0  0  0  0  0  0  0  0
   -4.2127    2.2253   -1.0828 H   0  0  0  0  0  0  0  0  0  0  0  0
   -0.9451   -4.8789   -2.1091 H   0  0  0  0  0  0  0  0  0  0  0  0
   -2.2318   -4.1804   -1.1191 H   0  0  0  0  0  0  0  0  0  0  0  0
   -1.0656   -5.8734    0.2646 H   0  0  0  0  0  0  0  0  0  0  0  0
    0.5012   -5.1519   -0.1185 H   0  0  0  0  0  0  0  0  0  0  0  0
  1  5  1  0  0  0  0
  1  6  1  0  0  0  0
  1  9  1  0  0  0  0
  1 10  1  0  0  0  0
  2  5  1  0  0  0  0
  2  7  1  0  0  0  0
  2 11  1  0  0  0  0
  2 12  1  0  0  0  0
  3  6  1  0  0  0  0
  3  8  1  0  0  0  0
  3 13  1  0  0  0  0
  3 14  1  0  0  0  0
  4  7  1  0  0  0  0
  4  8  1  0  0  0  0
  4 15  1  0  0  0  0
  4 16  1  0  0  0  0
  9 17  1  0  0  0  0
  9 25  1  0  0  0  0
  9 26  1  0  0  0  0
 10 18  1  0  0  0  0
 10 27  1  0  0  0  0
 10 28  1  0  0  0  0
 11 19  1  0  0  0  0
 11 29  1  0  0  0  0
 11 30  1  0  0  0  0
 12 20  1  0  0  0  0
 12 31  1  0  0  0  0
 12 32  1  0  0  0  0
 13 21  1  0  0  0  0
 13 33  1  0  0  0  0
 13 34  1  0  0  0  0
 14 22  1  0  0  0  0
 14 35  1  0  0  0  0
 14 36  1  0  0  0  0
 15 23  1  0  0  0  0
 15 37  1  0  0  0  0
 15 38  1  0  0  0  0
 16 24  1  0  0  0  0
 16 39  1  0  0  0  0
 16 40  1  0  0  0  0
 17 18  1  0  0  0  0
 17 41  1  0  0  0  0
 17 42  1  0  0  0  0
 18 43  1  0  0  0  0
 18 44  1  0  0  0  0
 19 20  1  0  0  0  0
 19 45  1  0  0  0  0
 19 46  1  0  0  0  0
 20 47  1  0  0  0  0
 20 48  1  0  0  0  0
 21 22  1  0  0  0  0
 21 49  1  0  0  0  0
 21 50  1  0  0  0  0
 22 51  1  0  0  0  0
 22 52  1  0  0  0  0
 23 24  1  0  0  0  0
 23 53  1  0  0  0  0
 23 54  1  0  0  0  0
 24 55  1  0  0  0  0
 24 56  1  0  0  0  0
M  END
> <PUBCHEM_COMPOUND_CID>
9095

> <PUBCHEM_CONFORMER_RMSD>
0.8

> <PUBCHEM_CONFORMER_DIVERSEORDER>
1
3
2

> <PUBCHEM_MMFF94_PARTIAL_CHARGES>
16
1 0.76
10 -0.08
11 -0.08
12 -0.08
13 -0.08
14 -0.08
15 -0.08
16 -0.08
2 0.76
3 0.76
4 0.76
5 -0.59
6 -0.59
7 -0.59
8 -0.59
9 -0.08

> <PUBCHEM_EFFECTIVE_ROTOR_COUNT>
4

> <PUBCHEM_PHARMACOPHORE_FEATURES>
4
5 1 9 10 17 18 rings
5 2 11 12 19 20 rings
5 3 13 14 21 22 rings
5 4 15 16 23 24 rings

> <PUBCHEM_HEAVY_ATOM_COUNT>
24

> <PUBCHEM_ATOM_DEF_STEREO_COUNT>
0

> <PUBCHEM_ATOM_UDEF_STEREO_COUNT>
0

> <PUBCHEM_BOND_DEF_STEREO_COUNT>
0

> <PUBCHEM_BOND_UDEF_STEREO_COUNT>
0

> <PUBCHEM_ISOTOPIC_ATOM_COUNT>
0

> <PUBCHEM_COMPONENT_COUNT>
1

> <PUBCHEM_CACTVS_TAUTO_COUNT>
1

> <PUBCHEM_CONFORMER_ID>
0000238700000001

> <PUBCHEM_MMFF94_ENERGY>
22.1228

> <PUBCHEM_FEATURE_SELFOVERLAP>
20.297

> <PUBCHEM_SHAPE_FINGERPRINT>
10190108 129 17687709012203600425
10930396 42 18050886362124083496
1100329 8 18338517439085543667
11578080 2 17412487743909561974
12553582 1 18268420398897847833
12788726 201 18268427009522266528
13149001 5 18338515227198517604
133893 2 17340703911456222072
13911987 19 18270954743118756612
14790565 3 18337662122288037712
14955137 171 18337654395973363059
15439362 3 18265341616248964505
15484559 13 18193300648471973551
1813 80 18334852861325462044
19319366 153 17775284967591204634
20028762 73 18187362087528804703
20600515 1 18261382356544187200
20775438 99 17685525073026718631
20905425 154 17758675942019748999
21285901 2 17969495090828601686
22113638 7 18410576171363670820
23419403 2 15951130223845187913
23558518 356 17908154178438022955
266924 87 17979071914025486422
283562 15 18192428804185572512
3027735 51 17977663431045781992
3060560 45 18337967769503492659
3084891 72 18338799030359219874
3084891 8 18122344854545536498
3178227 256 18340193138605351699
340366 18 18339640044773595037
350125 39 17981037514435592777
469060 322 18196074762841479128
484985 159 14572046101087460612
9981440 41 16750783298419327296

> <PUBCHEM_SHAPE_MULTIPOLES>
543.28
6.85
6.81
1.55
0.01
0
-0.25
-0.01
-0.62
0
-0.77
0
0
-0.03

> <PUBCHEM_SHAPE_SELFOVERLAP>
1058.255

> <PUBCHEM_SHAPE_VOLUME>
323.3

> <PUBCHEM_COORDINATE_TYPE>
2
5
10

$$$$

