47205568
  -OEChem-06241222593D

 32 33  0     0  0  0  0  0  0999 V2000
    6.6744   -1.5831    0.0445 Cl  0  0  0  0  0  0  0  0  0  0  0  0
   -3.3281   -1.4619   -1.5174 S   0  0  0  0  0  0  0  0  0  0  0  0
   -1.3851    2.2958    1.0822 O   0  0  0  0  0  0  0  0  0  0  0  0
    1.2752    2.7128    0.1934 O   0  0  0  0  0  0  0  0  0  0  0  0
   -1.4064    1.2524   -1.0210 N   0  0  0  0  0  0  0  0  0  0  0  0
   -4.2299    0.0308    0.3908 N   0  0  0  0  0  0  0  0  0  0  0  0
    1.0756    0.3550    0.0797 N   0  0  0  0  0  0  0  0  0  0  0  0
   -2.8293    1.2571   -1.2677 C   0  0  0  0  0  0  0  0  0  0  0  0
   -3.5013    0.0388   -0.7034 C   0  0  0  0  0  0  0  0  0  0  0  0
   -4.6902   -1.2528    0.6111 C   0  0  0  0  0  0  0  0  0  0  0  0
    2.4118   -0.1075    0.0711 C   0  0  0  0  0  0  0  0  0  0  0  0
   -0.8433    1.7705    0.1228 C   0  0  0  0  0  0  0  0  0  0  0  0
   -4.3058   -2.1984   -0.3163 C   0  0  0  0  0  0  0  0  0  0  0  0
    0.6522    1.6661    0.1301 C   0  0  0  0  0  0  0  0  0  0  0  0
    2.6758   -1.4761    0.0159 C   0  0  0  0  0  0  0  0  0  0  0  0
    3.4659    0.8047    0.1177 C   0  0  0  0  0  0  0  0  0  0  0  0
   -5.5372   -1.5003    1.7952 C   0  0  0  0  0  0  0  0  0  0  0  0
    3.9938   -1.9324    0.0075 C   0  0  0  0  0  0  0  0  0  0  0  0
    4.7840    0.3486    0.1095 C   0  0  0  0  0  0  0  0  0  0  0  0
    5.0479   -1.0201    0.0544 C   0  0  0  0  0  0  0  0  0  0  0  0
   -3.2638    2.1557   -0.8150 H   0  0  0  0  0  0  0  0  0  0  0  0
   -2.9807    1.3224   -2.3505 H   0  0  0  0  0  0  0  0  0  0  0  0
   -0.8041    0.8392   -1.7273 H   0  0  0  0  0  0  0  0  0  0  0  0
   -4.5422   -3.2527   -0.3485 H   0  0  0  0  0  0  0  0  0  0  0  0
    0.3627   -0.3704    0.0421 H   0  0  0  0  0  0  0  0  0  0  0  0
    1.8634   -2.1975   -0.0210 H   0  0  0  0  0  0  0  0  0  0  0  0
    3.3338    1.8774    0.1606 H   0  0  0  0  0  0  0  0  0  0  0  0
   -4.9385   -1.4347    2.7091 H   0  0  0  0  0  0  0  0  0  0  0  0
   -6.3383   -0.7567    1.8550 H   0  0  0  0  0  0  0  0  0  0  0  0
   -6.0001   -2.4917    1.7607 H   0  0  0  0  0  0  0  0  0  0  0  0
    4.1846   -3.0016   -0.0357 H   0  0  0  0  0  0  0  0  0  0  0  0
    5.5963    1.0701    0.1462 H   0  0  0  0  0  0  0  0  0  0  0  0
  1 20  1  0  0  0  0
  2  9  1  0  0  0  0
  2 13  1  0  0  0  0
  3 12  2  0  0  0  0
  4 14  2  0  0  0  0
  5  8  1  0  0  0  0
  5 12  1  0  0  0  0
  5 23  1  0  0  0  0
  6  9  2  0  0  0  0
  6 10  1  0  0  0  0
  7 11  1  0  0  0  0
  7 14  1  0  0  0  0
  7 25  1  0  0  0  0
  8  9  1  0  0  0  0
  8 21  1  0  0  0  0
  8 22  1  0  0  0  0
 10 13  2  0  0  0  0
 10 17  1  0  0  0  0
 11 15  2  0  0  0  0
 11 16  1  0  0  0  0
 12 14  1  0  0  0  0
 13 24  1  0  0  0  0
 15 18  1  0  0  0  0
 15 26  1  0  0  0  0
 16 19  2  0  0  0  0
 16 27  1  0  0  0  0
 17 28  1  0  0  0  0
 17 29  1  0  0  0  0
 17 30  1  0  0  0  0
 18 20  2  0  0  0  0
 18 31  1  0  0  0  0
 19 20  1  0  0  0  0
 19 32  1  0  0  0  0
M  END
> <PUBCHEM_COMPOUND_CID>
47205568

> <PUBCHEM_CONFORMER_RMSD>
0.8

> <PUBCHEM_CONFORMER_DIVERSEORDER>
1
6
24
38
35
22
8
14
50
37
31
16
42
11
27
40
13
7
10
5
32
20
25
34
33
21
29
48
2
12
3
41
4
43
46
28
47
44
18
15
36
19
49
9
23
30
45
17
26
39

> <PUBCHEM_MMFF94_PARTIAL_CHARGES>
27
1 -0.18
10 0.05
11 0.12
12 0.63
13 -0.11
14 0.63
15 -0.15
16 -0.15
17 0.18
18 -0.15
19 -0.15
2 -0.08
20 0.18
23 0.37
24 0.15
25 0.37
26 0.15
27 0.15
3 -0.57
31 0.15
32 0.15
4 -0.57
5 -0.73
6 -0.57
7 -0.55
8 0.48
9 0.2

> <PUBCHEM_EFFECTIVE_ROTOR_COUNT>
6

> <PUBCHEM_PHARMACOPHORE_FEATURES>
7
1 3 acceptor
1 4 acceptor
1 5 donor
1 6 acceptor
1 7 donor
5 2 6 9 10 13 rings
6 11 15 16 18 19 20 rings

> <PUBCHEM_HEAVY_ATOM_COUNT>
20

> <PUBCHEM_ATOM_DEF_STEREO_COUNT>
0

> <PUBCHEM_ATOM_UDEF_STEREO_COUNT>
0

> <PUBCHEM_BOND_DEF_STEREO_COUNT>
0

> <PUBCHEM_BOND_UDEF_STEREO_COUNT>
0

> <PUBCHEM_ISOTOPIC_ATOM_COUNT>
0

> <PUBCHEM_COMPONENT_COUNT>
1

> <PUBCHEM_CACTVS_TAUTO_COUNT>
4

> <PUBCHEM_CONFORMER_ID>
02D04CC000000001

> <PUBCHEM_MMFF94_ENERGY>
31.6206

> <PUBCHEM_FEATURE_SELFOVERLAP>
35.526

> <PUBCHEM_SHAPE_FINGERPRINT>
11045515 52 18202285848545839964
11089746 13 10159697971995510814
12107183 9 18262223500820769833
12166972 35 17703784826159100742
12596602 18 16805886178285920307
12633257 1 15864075355745046483
12760667 363 18334862731734567743
13103583 49 17603576397065520907
13402501 40 18201715124817449475
13533116 47 17973448698883528407
13544653 18 18410578366218728845
13740256 8 18411139134376138868
13941219 33 18261948656735519507
14211702 104 18197220454849379242
14251764 30 17917141698775580451
14950920 106 16733271149037802059
15352361 1 18410296899742314263
15375462 189 18261957345211701197
15537594 2 18262794069091417871
16110190 28 18187926144718170359
17780758 139 17967814972415154891
193927 3 18260544567459548372
20281389 69 8430306949088884726
20621476 21 18271799112225454131
21054139 6 17917995010135342474
21150785 3 16988553607729324342
21267235 1 18408880768185341974
21403212 168 18261664987758189865
221490 88 18412830166085369276
22765269 38 7276560772037850571
22950370 63 18408038489868309565
235170 7 16415206684301920911
23559900 14 18337406992746007600
2838139 119 8934736469626207803
312425 83 13613147528032796795
314194 84 18335425634000366958
329604 57 18272647944176698726
351380 3 18409167701200575783
3737641 26 18188765175412419990
5104073 3 18115597083826203392
5486654 36 18411694409529282457
6431902 208 18411985762493189982
9862886 166 17632291251168451626

> <PUBCHEM_SHAPE_MULTIPOLES>
390.63
14.41
2.67
1.15
7.06
0.69
0.02
-11.05
2.2
-0.46
0.19
-2.03
-0.21
0.62

> <PUBCHEM_SHAPE_SELFOVERLAP>
802.222

> <PUBCHEM_SHAPE_VOLUME>
226.4

> <PUBCHEM_COORDINATE_TYPE>
2
5
10

$$$$

