17395394
  -OEChem-06241222502D

 45 46  0     0  0  0  0  0  0999 V2000
    2.0570   -0.9723    0.0000 S   0  0  0  0  0  0  0  0  0  0  0  0
    2.7336    3.5285    0.0000 O   0  0  0  0  0  0  0  0  0  0  0  0
    4.9483    0.6833    0.0000 O   0  0  0  0  0  0  0  0  0  0  0  0
    2.8660   -5.5600    0.0000 O   0  0  0  0  0  0  0  0  0  0  0  0
    4.3159    4.2330    0.0000 N   0  0  0  0  0  0  0  0  0  0  0  0
    3.5471    1.7014    0.0000 N   0  0  0  0  0  0  0  0  0  0  0  0
    3.6750   -0.9723    0.0000 N   0  0  0  0  0  0  0  0  0  0  0  0
    3.9092    5.1465    0.0000 C   0  0  0  0  0  0  0  0  0  0  0  0
    3.5024    6.0600    0.0000 C   0  0  0  0  0  0  0  0  0  0  0  0
    4.8227    5.5532    0.0000 C   0  0  0  0  0  0  0  0  0  0  0  0
    2.9956    4.7398    0.0000 C   0  0  0  0  0  0  0  0  0  0  0  0
    3.7281    3.4239    0.0000 C   0  0  0  0  0  0  0  0  0  0  0  0
    4.1349    2.5104    0.0000 C   0  0  0  0  0  0  0  0  0  0  0  0
    3.9538    0.7878    0.0000 C   0  0  0  0  0  0  0  0  0  0  0  0
    3.3660   -0.0212    0.0000 C   0  0  0  0  0  0  0  0  0  0  0  0
    2.8660   -2.5600    0.0000 C   0  0  0  0  0  0  0  0  0  0  0  0
    2.8660   -1.5600    0.0000 C   0  0  0  0  0  0  0  0  0  0  0  0
    2.3660   -0.0212    0.0000 C   0  0  0  0  0  0  0  0  0  0  0  0
    2.0000   -3.0600    0.0000 C   0  0  0  0  0  0  0  0  0  0  0  0
    3.7320   -3.0600    0.0000 C   0  0  0  0  0  0  0  0  0  0  0  0
    2.8660   -4.5600    0.0000 C   0  0  0  0  0  0  0  0  0  0  0  0
    2.0000   -4.0600    0.0000 C   0  0  0  0  0  0  0  0  0  0  0  0
    3.7320   -4.0600    0.0000 C   0  0  0  0  0  0  0  0  0  0  0  0
    2.0000   -6.0600    0.0000 C   0  0  0  0  0  0  0  0  0  0  0  0
    2.7434    5.3062    0.0000 H   0  0  0  0  0  0  0  0  0  0  0  0
    4.0688    6.3122    0.0000 H   0  0  0  0  0  0  0  0  0  0  0  0
    3.2503    6.6264    0.0000 H   0  0  0  0  0  0  0  0  0  0  0  0
    2.9360    5.8079    0.0000 H   0  0  0  0  0  0  0  0  0  0  0  0
    5.0749    4.9868    0.0000 H   0  0  0  0  0  0  0  0  0  0  0  0
    5.3891    5.8054    0.0000 H   0  0  0  0  0  0  0  0  0  0  0  0
    4.5705    6.1196    0.0000 H   0  0  0  0  0  0  0  0  0  0  0  0
    2.4292    4.4876    0.0000 H   0  0  0  0  0  0  0  0  0  0  0  0
    3.2478    4.1734    0.0000 H   0  0  0  0  0  0  0  0  0  0  0  0
    4.9325    4.1681    0.0000 H   0  0  0  0  0  0  0  0  0  0  0  0
    4.5656    2.0644    0.0000 H   0  0  0  0  0  0  0  0  0  0  0  0
    4.6489    2.8571    0.0000 H   0  0  0  0  0  0  0  0  0  0  0  0
    2.9305    1.7662    0.0000 H   0  0  0  0  0  0  0  0  0  0  0  0
    2.0016    0.4804    0.0000 H   0  0  0  0  0  0  0  0  0  0  0  0
    1.4631   -2.7500    0.0000 H   0  0  0  0  0  0  0  0  0  0  0  0
    4.2690   -2.7500    0.0000 H   0  0  0  0  0  0  0  0  0  0  0  0
    1.4631   -4.3700    0.0000 H   0  0  0  0  0  0  0  0  0  0  0  0
    4.2690   -4.3700    0.0000 H   0  0  0  0  0  0  0  0  0  0  0  0
    1.6900   -5.5231    0.0000 H   0  0  0  0  0  0  0  0  0  0  0  0
    1.4631   -6.3700    0.0000 H   0  0  0  0  0  0  0  0  0  0  0  0
    2.3100   -6.5970    0.0000 H   0  0  0  0  0  0  0  0  0  0  0  0
  1 17  1  0  0  0  0
  1 18  1  0  0  0  0
  2 12  2  0  0  0  0
  3 14  2  0  0  0  0
  4 21  1  0  0  0  0
  4 24  1  0  0  0  0
  5  8  1  0  0  0  0
  5 12  1  0  0  0  0
  5 34  1  0  0  0  0
  6 13  1  0  0  0  0
  6 14  1  0  0  0  0
  6 37  1  0  0  0  0
  7 15  1  0  0  0  0
  7 17  2  0  0  0  0
  8  9  1  0  0  0  0
  8 10  1  0  0  0  0
  8 11  1  0  0  0  0
  9 26  1  0  0  0  0
  9 27  1  0  0  0  0
  9 28  1  0  0  0  0
 10 29  1  0  0  0  0
 10 30  1  0  0  0  0
 10 31  1  0  0  0  0
 11 25  1  0  0  0  0
 11 32  1  0  0  0  0
 11 33  1  0  0  0  0
 12 13  1  0  0  0  0
 13 35  1  0  0  0  0
 13 36  1  0  0  0  0
 14 15  1  0  0  0  0
 15 18  2  0  0  0  0
 16 17  1  0  0  0  0
 16 19  2  0  0  0  0
 16 20  1  0  0  0  0
 18 38  1  0  0  0  0
 19 22  1  0  0  0  0
 19 39  1  0  0  0  0
 20 23  2  0  0  0  0
 20 40  1  0  0  0  0
 21 22  2  0  0  0  0
 21 23  1  0  0  0  0
 22 41  1  0  0  0  0
 23 42  1  0  0  0  0
 24 43  1  0  0  0  0
 24 44  1  0  0  0  0
 24 45  1  0  0  0  0
M  END
> <PUBCHEM_COMPOUND_CID>
17395394

> <PUBCHEM_COMPOUND_CANONICALIZED>
1

> <PUBCHEM_CACTVS_COMPLEXITY>
445

> <PUBCHEM_CACTVS_HBOND_ACCEPTOR>
5

> <PUBCHEM_CACTVS_HBOND_DONOR>
2

> <PUBCHEM_CACTVS_ROTATABLE_BOND>
6

> <PUBCHEM_CACTVS_SUBSKEYS>
AAADceB7MABAAAAAAAAAAAAAAAAAAWAAAAAwAAAAAAAAAAABwAAAHgQQAAAADIzF3gayh5LIFAisAyVyVACC+KBnKjgIiLW+LNgMZqKksTuUMChk1hGoqIeQ0AIOIAAAAAAAAABAAAAAAAAAAAAAAAAAAA==

> <PUBCHEM_IUPAC_OPENEYE_NAME>
N-[2-(tert-butylamino)-2-oxo-ethyl]-2-(4-methoxyphenyl)thiazole-4-carboxamide

> <PUBCHEM_IUPAC_CAS_NAME>
N-[2-(tert-butylamino)-2-oxoethyl]-2-(4-methoxyphenyl)-4-thiazolecarboxamide

> <PUBCHEM_IUPAC_NAME>
N-[2-(tert-butylamino)-2-oxoethyl]-2-(4-methoxyphenyl)-1,3-thiazole-4-carboxamide

> <PUBCHEM_IUPAC_SYSTEMATIC_NAME>
N-[2-(tert-butylamino)-2-oxidanylidene-ethyl]-2-(4-methoxyphenyl)-1,3-thiazole-4-carboxamide

> <PUBCHEM_IUPAC_TRADITIONAL_NAME>
N-[2-(tert-butylamino)-2-keto-ethyl]-2-(4-methoxyphenyl)thiazole-4-carboxamide

> <PUBCHEM_IUPAC_INCHI>
InChI=1S/C17H21N3O3S/c1-17(2,3)20-14(21)9-18-15(22)13-10-24-16(19-13)11-5-7-12(23-4)8-6-11/h5-8,10H,9H2,1-4H3,(H,18,22)(H,20,21)

> <PUBCHEM_IUPAC_INCHIKEY>
ZIRIJALOXQCICC-UHFFFAOYSA-N

> <PUBCHEM_XLOGP3_AA>
2.5

> <PUBCHEM_EXACT_MASS>
347.130363

> <PUBCHEM_MOLECULAR_FORMULA>
C17H21N3O3S

> <PUBCHEM_MOLECULAR_WEIGHT>
347.43194

> <PUBCHEM_OPENEYE_CAN_SMILES>
CC(C)(C)NC(=O)CNC(=O)C1=CSC(=N1)C2=CC=C(C=C2)OC

> <PUBCHEM_OPENEYE_ISO_SMILES>
CC(C)(C)NC(=O)CNC(=O)C1=CSC(=N1)C2=CC=C(C=C2)OC

> <PUBCHEM_CACTVS_TPSA>
109

> <PUBCHEM_MONOISOTOPIC_WEIGHT>
347.130363

> <PUBCHEM_TOTAL_CHARGE>
0

> <PUBCHEM_HEAVY_ATOM_COUNT>
24

> <PUBCHEM_ATOM_DEF_STEREO_COUNT>
0

> <PUBCHEM_ATOM_UDEF_STEREO_COUNT>
0

> <PUBCHEM_BOND_DEF_STEREO_COUNT>
0

> <PUBCHEM_BOND_UDEF_STEREO_COUNT>
0

> <PUBCHEM_ISOTOPIC_ATOM_COUNT>
0

> <PUBCHEM_COMPONENT_COUNT>
1

> <PUBCHEM_CACTVS_TAUTO_COUNT>
4

> <PUBCHEM_COORDINATE_TYPE>
1
5
255

> <PUBCHEM_BONDANNOTATIONS>
1  17  8
1  18  8
15  18  8
16  19  8
16  20  8
19  22  8
20  23  8
21  22  8
21  23  8
7  15  8
7  17  8

$$$$

