586294
  -OEChem-06241222463D

 27 27  0     1  0  0  0  0  0999 V2000
   -1.8117    2.2191    0.4194 O   0  0  0  0  0  0  0  0  0  0  0  0
    3.7949   -0.4725   -0.1669 O   0  0  0  0  0  0  0  0  0  0  0  0
   -3.2479    0.1025    1.1870 O   0  0  0  0  0  0  0  0  0  0  0  0
   -2.4868   -1.2139   -0.5713 N   0  0  0  0  0  0  0  0  0  0  0  0
   -1.6375    1.0393   -0.3513 C   0  0  1  0  0  0  0  0  0  0  0  0
   -0.1829    0.6347   -0.3018 C   0  0  0  0  0  0  0  0  0  0  0  0
    0.5545    0.6116   -1.4740 C   0  0  0  0  0  0  0  0  0  0  0  0
    0.3850    0.2946    0.9150 C   0  0  0  0  0  0  0  0  0  0  0  0
   -2.5444   -0.0572    0.1918 C   0  0  0  0  0  0  0  0  0  0  0  0
    2.4845   -0.1076   -0.2109 C   0  0  0  0  0  0  0  0  0  0  0  0
    1.8975    0.2377   -1.4284 C   0  0  0  0  0  0  0  0  0  0  0  0
    1.7282   -0.0792    0.9609 C   0  0  0  0  0  0  0  0  0  0  0  0
   -3.2652   -2.3959   -0.2799 C   0  0  0  0  0  0  0  0  0  0  0  0
    4.3317   -0.8131    1.1105 C   0  0  0  0  0  0  0  0  0  0  0  0
   -1.9480    1.2644   -1.3789 H   0  0  0  0  0  0  0  0  0  0  0  0
    0.1085    0.8779   -2.4279 H   0  0  0  0  0  0  0  0  0  0  0  0
   -0.1922    0.3160    1.8350 H   0  0  0  0  0  0  0  0  0  0  0  0
    2.4816    0.2172   -2.3444 H   0  0  0  0  0  0  0  0  0  0  0  0
    2.1206   -0.3343    1.9394 H   0  0  0  0  0  0  0  0  0  0  0  0
   -1.9031   -1.2332   -1.4023 H   0  0  0  0  0  0  0  0  0  0  0  0
   -2.7248    2.5250    0.2831 H   0  0  0  0  0  0  0  0  0  0  0  0
   -2.6287   -3.2714   -0.4284 H   0  0  0  0  0  0  0  0  0  0  0  0
   -4.1045   -2.4327   -0.9787 H   0  0  0  0  0  0  0  0  0  0  0  0
   -3.6400   -2.3761    0.7462 H   0  0  0  0  0  0  0  0  0  0  0  0
    3.8377   -1.6950    1.5323 H   0  0  0  0  0  0  0  0  0  0  0  0
    4.3123    0.0411    1.7959 H   0  0  0  0  0  0  0  0  0  0  0  0
    5.3833   -1.0776    0.9592 H   0  0  0  0  0  0  0  0  0  0  0  0
  1  5  1  0  0  0  0
  1 21  1  0  0  0  0
  2 10  1  0  0  0  0
  2 14  1  0  0  0  0
  3  9  2  0  0  0  0
  4  9  1  0  0  0  0
  4 13  1  0  0  0  0
  4 20  1  0  0  0  0
  5  6  1  0  0  0  0
  5  9  1  0  0  0  0
  5 15  1  0  0  0  0
  6  7  2  0  0  0  0
  6  8  1  0  0  0  0
  7 11  1  0  0  0  0
  7 16  1  0  0  0  0
  8 12  2  0  0  0  0
  8 17  1  0  0  0  0
 10 11  2  0  0  0  0
 10 12  1  0  0  0  0
 11 18  1  0  0  0  0
 12 19  1  0  0  0  0
 13 22  1  0  0  0  0
 13 23  1  0  0  0  0
 13 24  1  0  0  0  0
 14 25  1  0  0  0  0
 14 26  1  0  0  0  0
 14 27  1  0  0  0  0
M  END
> <PUBCHEM_COMPOUND_CID>
586294

> <PUBCHEM_CONFORMER_RMSD>
0.6

> <PUBCHEM_CONFORMER_DIVERSEORDER>
1
7
8
9
19
15
17
13
20
18
11
14
3
5
10
4
16
6
12
2

> <PUBCHEM_MMFF94_PARTIAL_CHARGES>
20
1 -0.68
10 0.08
11 -0.15
12 -0.15
13 0.3
14 0.28
16 0.15
17 0.15
18 0.15
19 0.15
2 -0.36
20 0.37
21 0.4
3 -0.57
4 -0.73
5 0.48
6 -0.14
7 -0.15
8 -0.15
9 0.57

> <PUBCHEM_EFFECTIVE_ROTOR_COUNT>
4

> <PUBCHEM_PHARMACOPHORE_FEATURES>
6
1 1 acceptor
1 1 donor
1 2 acceptor
1 3 acceptor
1 4 donor
6 6 7 8 10 11 12 rings

> <PUBCHEM_HEAVY_ATOM_COUNT>
14

> <PUBCHEM_ATOM_DEF_STEREO_COUNT>
0

> <PUBCHEM_ATOM_UDEF_STEREO_COUNT>
1

> <PUBCHEM_BOND_DEF_STEREO_COUNT>
0

> <PUBCHEM_BOND_UDEF_STEREO_COUNT>
0

> <PUBCHEM_ISOTOPIC_ATOM_COUNT>
0

> <PUBCHEM_COMPONENT_COUNT>
1

> <PUBCHEM_CACTVS_TAUTO_COUNT>
2

> <PUBCHEM_CONFORMER_ID>
0008F23600000001

> <PUBCHEM_MMFF94_ENERGY>
34.3195

> <PUBCHEM_FEATURE_SELFOVERLAP>
30.454

> <PUBCHEM_SHAPE_FINGERPRINT>
11471102 22 16081363029579915855
11578080 2 17915484751336552261
11769659 78 18272376364672691182
12251169 10 16732987474884542895
124424 183 17458914858710250696
12500047 106 18265905837290256349
12932764 1 18343012289933448260
14128692 85 18059576845388269117
14289901 80 18410015442435999096
15653759 3 17749109997631808354
16945 1 18261947539595623157
17844478 74 17095239220096677624
18186145 218 14405188360967537572
19026448 5 18343018921964131956
19049666 15 17025418157142255021
200 152 17489873734387975491
20112054 13 15502377837370812192
20279233 1 17822010951463894101
20361792 2 17632577136733261517
20645464 45 17458343074156781577
20645477 70 15482673515818502738
20671657 53 17561090163423565271
21061003 4 16443062781347466584
21650355 55 18333735706346028257
22112679 90 18130773594762668444
232386 152 18411978031525157439
23402539 116 16773522182882626506
23557571 272 17894901979779916148
23559900 14 18042400404321498510
2748010 2 15214691827276695880
3086196 2 18335427858745842891
449060 23 18273214209581258366
568465 68 16732978678675742351
5902787 121 18261109630151815752
77492 1 18060408123349733044

> <PUBCHEM_SHAPE_MULTIPOLES>
265.52
6.53
1.62
1.28
2.69
0.33
0.13
3.52
-1.18
-1.76
0.08
0.34
-0.11
-0.94

> <PUBCHEM_SHAPE_SELFOVERLAP>
545.317

> <PUBCHEM_SHAPE_VOLUME>
153.8

> <PUBCHEM_COORDINATE_TYPE>
2
5
10

$$$$

