9634
  -OEChem-06261203532D

  8  7  0     1  0  0  0  0  0999 V2000
    2.0000   -0.7500    0.0000 Br  0  0  0  0  0  0  0  0  0  0  0  0
    4.5981    0.7500    0.0000 Br  0  0  0  0  0  0  0  0  0  0  0  0
    2.3660    0.6160    0.0000 Cl  0  0  0  0  0  0  0  0  0  0  0  0
    3.3660   -1.1160    0.0000 F   0  0  0  0  0  0  0  0  0  0  0  0
    4.2320   -0.6160    0.0000 F   0  0  0  0  0  0  0  0  0  0  0  0
    3.2320    1.1160    0.0000 F   0  0  0  0  0  0  0  0  0  0  0  0
    2.8660   -0.2500    0.0000 C   0  0  3  0  0  0  0  0  0  0  0  0
    3.7320    0.2500    0.0000 C   0  0  0  0  0  0  0  0  0  0  0  0
  1  7  1  0  0  0  0
  2  8  1  0  0  0  0
  3  7  1  0  0  0  0
  4  7  1  0  0  0  0
  5  8  1  0  0  0  0
  6  8  1  0  0  0  0
  7  8  1  0  0  0  0
M  END
> <PUBCHEM_COMPOUND_CID>
9634

> <PUBCHEM_COMPOUND_CANONICALIZED>
1

> <PUBCHEM_CACTVS_COMPLEXITY>
97.3

> <PUBCHEM_CACTVS_HBOND_ACCEPTOR>
3

> <PUBCHEM_CACTVS_HBOND_DONOR>
0

> <PUBCHEM_CACTVS_ROTATABLE_BOND>
1

> <PUBCHEM_CACTVS_SUBSKEYS>
AAADcQBAAYAEGAAAAAAAAAAAAAAAAAAAAAAAAAAAAAAAAAAAAAAACQJAAAABAAIAABAAAAAAAAAAAAAAAAAAAAAAAAAAAAAAAAAAAAAAAAAAAAAAAAAAAAAAAAAAAAAAAAAAAAAAAAAAAAAAAAAAAAAAAA==

> <PUBCHEM_IUPAC_OPENEYE_NAME>
1,2-dibromo-1-chloro-1,2,2-trifluoro-ethane

> <PUBCHEM_IUPAC_CAS_NAME>
1,2-dibromo-1-chloro-1,2,2-trifluoroethane

> <PUBCHEM_IUPAC_NAME>
1,2-dibromo-1-chloro-1,2,2-trifluoroethane

> <PUBCHEM_IUPAC_SYSTEMATIC_NAME>
1,2-bis(bromanyl)-1-chloranyl-1,2,2-tris(fluoranyl)ethane

> <PUBCHEM_IUPAC_TRADITIONAL_NAME>
1,2-dibromo-1-chloro-1,2,2-trifluoro-ethane

> <PUBCHEM_IUPAC_INCHI>
InChI=1S/C2Br2ClF3/c3-1(5,6)2(4,7)8

> <PUBCHEM_IUPAC_INCHIKEY>
OVZATIUQXBLIQT-UHFFFAOYSA-N

> <PUBCHEM_XLOGP3_AA>
3.5

> <PUBCHEM_EXACT_MASS>
275.79869

> <PUBCHEM_MOLECULAR_FORMULA>
C2Br2ClF3

> <PUBCHEM_MOLECULAR_WEIGHT>
276.27761

> <PUBCHEM_OPENEYE_CAN_SMILES>
C(C(F)(Cl)Br)(F)(F)Br

> <PUBCHEM_OPENEYE_ISO_SMILES>
C(C(F)(Cl)Br)(F)(F)Br

> <PUBCHEM_CACTVS_TPSA>
0

> <PUBCHEM_MONOISOTOPIC_WEIGHT>
273.800737

> <PUBCHEM_TOTAL_CHARGE>
0

> <PUBCHEM_HEAVY_ATOM_COUNT>
8

> <PUBCHEM_ATOM_DEF_STEREO_COUNT>
0

> <PUBCHEM_ATOM_UDEF_STEREO_COUNT>
1

> <PUBCHEM_BOND_DEF_STEREO_COUNT>
0

> <PUBCHEM_BOND_UDEF_STEREO_COUNT>
0

> <PUBCHEM_ISOTOPIC_ATOM_COUNT>
0

> <PUBCHEM_COMPONENT_COUNT>
1

> <PUBCHEM_CACTVS_TAUTO_COUNT>
1

> <PUBCHEM_COORDINATE_TYPE>
1
5
255

> <PUBCHEM_BONDANNOTATIONS>
7  1  3

$$$$

