47205287
  -OEChem-06241222582D

 41 42  0     0  0  0  0  0  0999 V2000
    2.4896    0.2618    0.0000 O   0  0  0  0  0  0  0  0  0  0  0  0
    4.8552   -0.9231    0.0000 O   0  0  0  0  0  0  0  0  0  0  0  0
    3.7646   -4.1229    0.0000 O   0  0  0  0  0  0  0  0  0  0  0  0
    4.0898    0.9246    0.0000 N   0  0  0  0  0  0  0  0  0  0  0  0
    3.2550   -1.5860    0.0000 N   0  0  0  0  0  0  0  0  0  0  0  0
    3.1151   -3.3625    0.0000 N   0  0  0  0  0  0  0  0  0  0  0  0
    3.7071    1.8485    0.0000 C   0  0  0  0  0  0  0  0  0  0  0  0
    2.7071    1.8485    0.0000 C   0  0  0  0  0  0  0  0  0  0  0  0
    4.4142    2.5556    0.0000 C   0  0  0  0  0  0  0  0  0  0  0  0
    4.4142    3.5556    0.0000 C   0  0  0  0  0  0  0  0  0  0  0  0
    2.0000    2.5556    0.0000 C   0  0  0  0  0  0  0  0  0  0  0  0
    3.7071    4.2627    0.0000 C   0  0  0  0  0  0  0  0  0  0  0  0
    2.0000    3.5556    0.0000 C   0  0  0  0  0  0  0  0  0  0  0  0
    2.7071    4.2627    0.0000 C   0  0  0  0  0  0  0  0  0  0  0  0
    3.4810    0.1313    0.0000 C   0  0  0  0  0  0  0  0  0  0  0  0
    3.8637   -0.7926    0.0000 C   0  0  0  0  0  0  0  0  0  0  0  0
    3.6376   -2.5098    0.0000 C   0  0  0  0  0  0  0  0  0  0  0  0
    4.6100   -2.7433    0.0000 C   0  0  0  0  0  0  0  0  0  0  0  0
    4.6885   -3.7402    0.0000 C   0  0  0  0  0  0  0  0  0  0  0  0
    5.5411   -4.2627    0.0000 C   0  0  0  0  0  0  0  0  0  0  0  0
    3.3626    1.3330    0.0000 H   0  0  0  0  0  0  0  0  0  0  0  0
    4.7242    2.0187    0.0000 H   0  0  0  0  0  0  0  0  0  0  0  0
    5.0131    2.7161    0.0000 H   0  0  0  0  0  0  0  0  0  0  0  0
    2.1702    1.5385    0.0000 H   0  0  0  0  0  0  0  0  0  0  0  0
    2.8676    1.2496    0.0000 H   0  0  0  0  0  0  0  0  0  0  0  0
    5.0131    3.3951    0.0000 H   0  0  0  0  0  0  0  0  0  0  0  0
    4.7242    4.0925    0.0000 H   0  0  0  0  0  0  0  0  0  0  0  0
    1.4011    2.7161    0.0000 H   0  0  0  0  0  0  0  0  0  0  0  0
    1.6900    2.0187    0.0000 H   0  0  0  0  0  0  0  0  0  0  0  0
    4.2440    4.5727    0.0000 H   0  0  0  0  0  0  0  0  0  0  0  0
    3.5466    4.8616    0.0000 H   0  0  0  0  0  0  0  0  0  0  0  0
    1.6900    4.0925    0.0000 H   0  0  0  0  0  0  0  0  0  0  0  0
    1.4011    3.3951    0.0000 H   0  0  0  0  0  0  0  0  0  0  0  0
    2.8676    4.8616    0.0000 H   0  0  0  0  0  0  0  0  0  0  0  0
    2.1702    4.5727    0.0000 H   0  0  0  0  0  0  0  0  0  0  0  0
    4.7045    0.8437    0.0000 H   0  0  0  0  0  0  0  0  0  0  0  0
    2.6402   -1.5050    0.0000 H   0  0  0  0  0  0  0  0  0  0  0  0
    5.0815   -2.3406    0.0000 H   0  0  0  0  0  0  0  0  0  0  0  0
    5.2172   -4.7914    0.0000 H   0  0  0  0  0  0  0  0  0  0  0  0
    6.0697   -4.5867    0.0000 H   0  0  0  0  0  0  0  0  0  0  0  0
    5.8650   -3.7341    0.0000 H   0  0  0  0  0  0  0  0  0  0  0  0
  1 15  2  0  0  0  0
  2 16  2  0  0  0  0
  3  6  1  0  0  0  0
  3 19  1  0  0  0  0
  4  7  1  0  0  0  0
  4 15  1  0  0  0  0
  4 36  1  0  0  0  0
  5 16  1  0  0  0  0
  5 17  1  0  0  0  0
  5 37  1  0  0  0  0
  6 17  2  0  0  0  0
  7  8  1  0  0  0  0
  7  9  1  0  0  0  0
  7 21  1  0  0  0  0
  8 11  1  0  0  0  0
  8 24  1  0  0  0  0
  8 25  1  0  0  0  0
  9 10  1  0  0  0  0
  9 22  1  0  0  0  0
  9 23  1  0  0  0  0
 10 12  1  0  0  0  0
 10 26  1  0  0  0  0
 10 27  1  0  0  0  0
 11 13  1  0  0  0  0
 11 28  1  0  0  0  0
 11 29  1  0  0  0  0
 12 14  1  0  0  0  0
 12 30  1  0  0  0  0
 12 31  1  0  0  0  0
 13 14  1  0  0  0  0
 13 32  1  0  0  0  0
 13 33  1  0  0  0  0
 14 34  1  0  0  0  0
 14 35  1  0  0  0  0
 15 16  1  0  0  0  0
 17 18  1  0  0  0  0
 18 19  2  0  0  0  0
 18 38  1  0  0  0  0
 19 20  1  0  0  0  0
 20 39  1  0  0  0  0
 20 40  1  0  0  0  0
 20 41  1  0  0  0  0
M  END
> <PUBCHEM_COMPOUND_CID>
47205287

> <PUBCHEM_COMPOUND_CANONICALIZED>
1

> <PUBCHEM_CACTVS_COMPLEXITY>
341

> <PUBCHEM_CACTVS_HBOND_ACCEPTOR>
4

> <PUBCHEM_CACTVS_HBOND_DONOR>
2

> <PUBCHEM_CACTVS_ROTATABLE_BOND>
2

> <PUBCHEM_CACTVS_SUBSKEYS>
AAADceBzMAAAAAAAAAAAAAAAAAAAAWAAAAAAAAAAAAAYAAABgAAAHgAUAAAACCzBkgQztJLQAACpAKNycgCAAAAlIgAhGKG+bFqAZApAiaAUAIhCFwrAQEEQgIAAAAAAAAAAAAAAAAAAAAAAAAAAAAAAAA==

> <PUBCHEM_IUPAC_OPENEYE_NAME>
N-cyclooctyl-N'-(5-methylisoxazol-3-yl)oxamide

> <PUBCHEM_IUPAC_CAS_NAME>
N-cyclooctyl-N'-(5-methyl-3-isoxazolyl)oxamide

> <PUBCHEM_IUPAC_NAME>
N-cyclooctyl-N'-(5-methyl-1,2-oxazol-3-yl)oxamide

> <PUBCHEM_IUPAC_SYSTEMATIC_NAME>
N-cyclooctyl-N'-(5-methyl-1,2-oxazol-3-yl)ethanediamide

> <PUBCHEM_IUPAC_TRADITIONAL_NAME>
N-cyclooctyl-N'-(5-methylisoxazol-3-yl)oxamide

> <PUBCHEM_IUPAC_INCHI>
InChI=1S/C14H21N3O3/c1-10-9-12(17-20-10)16-14(19)13(18)15-11-7-5-3-2-4-6-8-11/h9,11H,2-8H2,1H3,(H,15,18)(H,16,17,19)

> <PUBCHEM_IUPAC_INCHIKEY>
UDZOUXRZOFKYMX-UHFFFAOYSA-N

> <PUBCHEM_XLOGP3_AA>
2.9

> <PUBCHEM_EXACT_MASS>
279.158292

> <PUBCHEM_MOLECULAR_FORMULA>
C14H21N3O3

> <PUBCHEM_MOLECULAR_WEIGHT>
279.33484

> <PUBCHEM_OPENEYE_CAN_SMILES>
CC1=CC(=NO1)NC(=O)C(=O)NC2CCCCCCC2

> <PUBCHEM_OPENEYE_ISO_SMILES>
CC1=CC(=NO1)NC(=O)C(=O)NC2CCCCCCC2

> <PUBCHEM_CACTVS_TPSA>
84.2

> <PUBCHEM_MONOISOTOPIC_WEIGHT>
279.158292

> <PUBCHEM_TOTAL_CHARGE>
0

> <PUBCHEM_HEAVY_ATOM_COUNT>
20

> <PUBCHEM_ATOM_DEF_STEREO_COUNT>
0

> <PUBCHEM_ATOM_UDEF_STEREO_COUNT>
0

> <PUBCHEM_BOND_DEF_STEREO_COUNT>
0

> <PUBCHEM_BOND_UDEF_STEREO_COUNT>
0

> <PUBCHEM_ISOTOPIC_ATOM_COUNT>
0

> <PUBCHEM_COMPONENT_COUNT>
1

> <PUBCHEM_CACTVS_TAUTO_COUNT>
16

> <PUBCHEM_COORDINATE_TYPE>
1
5
255

> <PUBCHEM_BONDANNOTATIONS>
17  18  8
18  19  8
3  19  8
3  6  8
6  17  8

$$$$

