10817
  -OEChem-06261205003D

 22 22  0     1  0  0  0  0  0999 V2000
    2.7217    0.1353    1.2170 O   0  0  0  0  0  0  0  0  0  0  0  0
    2.1743   -0.3661   -0.0079 C   0  0  1  0  0  0  0  0  0  0  0  0
    0.6912   -0.2088   -0.0065 C   0  0  0  0  0  0  0  0  0  0  0  0
    0.1244    1.0646    0.0477 C   0  0  0  0  0  0  0  0  0  0  0  0
   -0.1293   -1.3357   -0.0592 C   0  0  0  0  0  0  0  0  0  0  0  0
   -2.0831    0.0846   -0.0035 C   0  0  0  0  0  0  0  0  0  0  0  0
    2.8462    0.3622   -1.1761 C   0  0  0  0  0  0  0  0  0  0  0  0
   -1.2627    1.2113    0.0492 C   0  0  0  0  0  0  0  0  0  0  0  0
   -1.5165   -1.1889   -0.0577 C   0  0  0  0  0  0  0  0  0  0  0  0
   -3.5661    0.2415   -0.0029 C   0  0  0  0  0  0  0  0  0  0  0  0
    2.4423   -1.4281   -0.0620 H   0  0  0  0  0  0  0  0  0  0  0  0
    0.7460    1.9544    0.0983 H   0  0  0  0  0  0  0  0  0  0  0  0
    0.2964   -2.3347   -0.1022 H   0  0  0  0  0  0  0  0  0  0  0  0
    2.7410    1.4495   -1.0948 H   0  0  0  0  0  0  0  0  0  0  0  0
    2.4335    0.0413   -2.1380 H   0  0  0  0  0  0  0  0  0  0  0  0
    3.9229    0.1587   -1.1764 H   0  0  0  0  0  0  0  0  0  0  0  0
   -1.6923    2.2087    0.0919 H   0  0  0  0  0  0  0  0  0  0  0  0
   -2.1453   -2.0743   -0.1012 H   0  0  0  0  0  0  0  0  0  0  0  0
   -4.0541   -0.6155    0.4737 H   0  0  0  0  0  0  0  0  0  0  0  0
   -3.8688    1.1336    0.5559 H   0  0  0  0  0  0  0  0  0  0  0  0
   -3.9350    0.3289   -1.0297 H   0  0  0  0  0  0  0  0  0  0  0  0
    3.6837   -0.0045    1.1864 H   0  0  0  0  0  0  0  0  0  0  0  0
  1  2  1  0  0  0  0
  1 22  1  0  0  0  0
  2  3  1  0  0  0  0
  2  7  1  0  0  0  0
  2 11  1  0  0  0  0
  3  4  2  0  0  0  0
  3  5  1  0  0  0  0
  4  8  1  0  0  0  0
  4 12  1  0  0  0  0
  5  9  2  0  0  0  0
  5 13  1  0  0  0  0
  6  8  2  0  0  0  0
  6  9  1  0  0  0  0
  6 10  1  0  0  0  0
  7 14  1  0  0  0  0
  7 15  1  0  0  0  0
  7 16  1  0  0  0  0
  8 17  1  0  0  0  0
  9 18  1  0  0  0  0
 10 19  1  0  0  0  0
 10 20  1  0  0  0  0
 10 21  1  0  0  0  0
M  END
> <PUBCHEM_COMPOUND_CID>
10817

> <PUBCHEM_CONFORMER_RMSD>
0.4

> <PUBCHEM_CONFORMER_DIVERSEORDER>
2
3
1

> <PUBCHEM_MMFF94_PARTIAL_CHARGES>
14
1 -0.68
10 0.14
12 0.15
13 0.15
17 0.15
18 0.15
2 0.42
22 0.4
3 -0.14
4 -0.15
5 -0.15
6 -0.14
8 -0.15
9 -0.15

> <PUBCHEM_EFFECTIVE_ROTOR_COUNT>
1

> <PUBCHEM_PHARMACOPHORE_FEATURES>
3
1 1 acceptor
1 1 donor
6 3 4 5 6 8 9 rings

> <PUBCHEM_HEAVY_ATOM_COUNT>
10

> <PUBCHEM_ATOM_DEF_STEREO_COUNT>
0

> <PUBCHEM_ATOM_UDEF_STEREO_COUNT>
1

> <PUBCHEM_BOND_DEF_STEREO_COUNT>
0

> <PUBCHEM_BOND_UDEF_STEREO_COUNT>
0

> <PUBCHEM_ISOTOPIC_ATOM_COUNT>
0

> <PUBCHEM_COMPONENT_COUNT>
1

> <PUBCHEM_CACTVS_TAUTO_COUNT>
1

> <PUBCHEM_CONFORMER_ID>
00002A4100000002

> <PUBCHEM_MMFF94_ENERGY>
22.8428

> <PUBCHEM_FEATURE_SELFOVERLAP>
15.223

> <PUBCHEM_SHAPE_FINGERPRINT>
10857977 72 18336553737209465323
11062470 55 16845569825038211493
12897270 3 18408315596963429110
12932764 1 17676770950012904455
14325111 11 18411135870174594125
14993402 34 18272644641040776373
15310529 11 16845576409012047229
15775835 57 17774713186899873956
16945 1 18408886239345715125
193761 8 17689435984277868407
20645464 45 17822302262079165002
20645476 183 17917699163491151526
21040471 1 18337672034934561966
21293036 1 18411131420614849501
23235685 24 18410574002579253269
23402655 69 18120672464176968269
23552423 10 17912922786084737125
2748010 2 18120940499377439709
29004967 10 16153426147151430218
369184 2 18040444299314054202
5084963 1 18268425913788336042

> <PUBCHEM_SHAPE_MULTIPOLES>
199.93
4.68
1.24
0.86
0.3
0.11
0.01
-0.48
-0.25
0.34
-0.02
-0.67
-0.06
-0.11

> <PUBCHEM_SHAPE_SELFOVERLAP>
407.805

> <PUBCHEM_SHAPE_VOLUME>
117.8

> <PUBCHEM_COORDINATE_TYPE>
2
5
10

$$$$

