6258
  -OEChem-06261201123D

 15 16  0     0  0  0  0  0  0999 V2000
    3.8663   -0.2547    0.0001 Cl  0  0  0  0  0  0  0  0  0  0  0  0
   -1.3659   -2.0815   -0.0001 S   0  0  0  0  0  0  0  0  0  0  0  0
   -2.6826    1.4873    0.0002 O   0  0  0  0  0  0  0  0  0  0  0  0
   -2.5349   -0.8420    0.0000 N   0  0  0  0  0  0  0  0  0  0  0  0
   -0.5651    0.4185    0.0000 C   0  0  0  0  0  0  0  0  0  0  0  0
   -0.0645   -0.8832    0.0000 C   0  0  0  0  0  0  0  0  0  0  0  0
    0.2721    1.5234   -0.0001 C   0  0  0  0  0  0  0  0  0  0  0  0
   -2.0382    0.4508   -0.0002 C   0  0  0  0  0  0  0  0  0  0  0  0
    1.3021   -1.1105    0.0000 C   0  0  0  0  0  0  0  0  0  0  0  0
    1.6497    1.2996   -0.0001 C   0  0  0  0  0  0  0  0  0  0  0  0
    2.1611   -0.0078    0.0000 C   0  0  0  0  0  0  0  0  0  0  0  0
   -0.1194    2.5348   -0.0001 H   0  0  0  0  0  0  0  0  0  0  0  0
    1.6944   -2.1233    0.0001 H   0  0  0  0  0  0  0  0  0  0  0  0
    2.3222    2.1542   -0.0001 H   0  0  0  0  0  0  0  0  0  0  0  0
   -3.5267   -1.0539    0.0002 H   0  0  0  0  0  0  0  0  0  0  0  0
  1 11  1  0  0  0  0
  2  4  1  0  0  0  0
  2  6  1  0  0  0  0
  3  8  2  0  0  0  0
  4  8  1  0  0  0  0
  4 15  1  0  0  0  0
  5  6  2  0  0  0  0
  5  7  1  0  0  0  0
  5  8  1  0  0  0  0
  6  9  1  0  0  0  0
  7 10  2  0  0  0  0
  7 12  1  0  0  0  0
  9 11  2  0  0  0  0
  9 13  1  0  0  0  0
 10 11  1  0  0  0  0
 10 14  1  0  0  0  0
M  END
> <PUBCHEM_COMPOUND_CID>
6258

> <PUBCHEM_CONFORMER_RMSD>
0.4

> <PUBCHEM_CONFORMER_DIVERSEORDER>
1

> <PUBCHEM_MMFF94_PARTIAL_CHARGES>
15
1 -0.18
10 -0.15
11 0.18
12 0.15
13 0.15
14 0.15
15 0.37
2 -0.09
3 -0.57
4 -0.44
5 0.09
6 0.1
7 -0.15
8 0.54
9 -0.15

> <PUBCHEM_EFFECTIVE_ROTOR_COUNT>
0

> <PUBCHEM_PHARMACOPHORE_FEATURES>
4
1 3 acceptor
1 4 donor
5 2 4 5 6 8 rings
6 5 6 7 9 10 11 rings

> <PUBCHEM_HEAVY_ATOM_COUNT>
11

> <PUBCHEM_ATOM_DEF_STEREO_COUNT>
0

> <PUBCHEM_ATOM_UDEF_STEREO_COUNT>
0

> <PUBCHEM_BOND_DEF_STEREO_COUNT>
0

> <PUBCHEM_BOND_UDEF_STEREO_COUNT>
0

> <PUBCHEM_ISOTOPIC_ATOM_COUNT>
0

> <PUBCHEM_COMPONENT_COUNT>
1

> <PUBCHEM_CACTVS_TAUTO_COUNT>
2

> <PUBCHEM_CONFORMER_ID>
0000187200000001

> <PUBCHEM_MMFF94_ENERGY>
22.5624

> <PUBCHEM_FEATURE_SELFOVERLAP>
20.361

> <PUBCHEM_SHAPE_FINGERPRINT>
12032990 46 18409722954962817414
12423570 1 8323685613825048188
13380535 76 18409451426893026535
14128692 85 18338514119355385582
14325111 11 18410575067868474496
15775835 57 18272649099079627185
16945 1 18410855421473586054
193761 8 18050285864748914276
19973954 147 18267303127532381412
20201158 50 18408041818605328366
20588541 1 18336262452712118734
20871998 184 18187923924262367415
21040471 1 18410856563982314085
21501502 16 18266736879128492364
23235685 24 18336551619796025284
23402539 116 18261121772509619453
23402655 69 18192447474814811285
23463225 33 18342178903586082090
23552423 10 18128256675349698926
23559900 14 18334573577973601174
241688 4 15816504280821087707
2748010 2 18265899055663340652
369184 2 15140675882269220806
5084963 1 18188487969400410779
528886 8 18338241564751546121
53812653 166 18335704978646918616
6333449 129 18408606967444588735
75552 356 18409730659975696002

> <PUBCHEM_SHAPE_MULTIPOLES>
221.24
4.52
1.88
0.61
2.43
0.21
0
0.13
0
-0.86
0
0.04
0.03
0

> <PUBCHEM_SHAPE_SELFOVERLAP>
460.81

> <PUBCHEM_SHAPE_VOLUME>
129.2

> <PUBCHEM_COORDINATE_TYPE>
2
5
10

$$$$

