583029
  -OEChem-06241222443D

 28 29  0     0  0  0  0  0  0999 V2000
   -0.4350    0.3501    0.2124 C   0  0  0  0  0  0  0  0  0  0  0  0
   -0.3982    1.8329    0.4077 C   0  0  0  0  0  0  0  0  0  0  0  0
   -1.7149    2.2535   -0.2624 C   0  0  0  0  0  0  0  0  0  0  0  0
   -2.6851    1.0721   -0.1115 C   0  0  0  0  0  0  0  0  0  0  0  0
   -1.7334   -0.0819   -0.0822 C   0  0  0  0  0  0  0  0  0  0  0  0
    0.6077   -0.5527    0.3341 C   0  0  0  0  0  0  0  0  0  0  0  0
    1.9912   -0.1053    0.6560 C   0  0  0  0  0  0  0  0  0  0  0  0
   -2.0160   -1.4254   -0.2609 C   0  0  0  0  0  0  0  0  0  0  0  0
    0.3345   -1.9088    0.1430 C   0  0  0  0  0  0  0  0  0  0  0  0
    2.8081    0.2088   -0.6077 C   0  0  0  0  0  0  0  0  0  0  0  0
   -0.9679   -2.3420   -0.1525 C   0  0  0  0  0  0  0  0  0  0  0  0
    4.2088    0.6987   -0.2760 C   0  0  0  0  0  0  0  0  0  0  0  0
   -0.4053    2.0735    1.4758 H   0  0  0  0  0  0  0  0  0  0  0  0
    0.4564    2.3099   -0.0795 H   0  0  0  0  0  0  0  0  0  0  0  0
   -1.5321    2.4330   -1.3312 H   0  0  0  0  0  0  0  0  0  0  0  0
   -2.1184    3.1813    0.1550 H   0  0  0  0  0  0  0  0  0  0  0  0
   -3.3831    1.0193   -0.9516 H   0  0  0  0  0  0  0  0  0  0  0  0
   -3.2359    1.1305    0.8328 H   0  0  0  0  0  0  0  0  0  0  0  0
    1.9634    0.7732    1.3127 H   0  0  0  0  0  0  0  0  0  0  0  0
    2.5033   -0.8826    1.2383 H   0  0  0  0  0  0  0  0  0  0  0  0
   -3.0235   -1.7635   -0.4782 H   0  0  0  0  0  0  0  0  0  0  0  0
    1.1280   -2.6480    0.2237 H   0  0  0  0  0  0  0  0  0  0  0  0
    2.8815   -0.6874   -1.2360 H   0  0  0  0  0  0  0  0  0  0  0  0
    2.2974    0.9719   -1.2072 H   0  0  0  0  0  0  0  0  0  0  0  0
   -1.1620   -3.4020   -0.2925 H   0  0  0  0  0  0  0  0  0  0  0  0
    4.1713    1.6174    0.3181 H   0  0  0  0  0  0  0  0  0  0  0  0
    4.7629   -0.0558    0.2914 H   0  0  0  0  0  0  0  0  0  0  0  0
    4.7646    0.9100   -1.1948 H   0  0  0  0  0  0  0  0  0  0  0  0
  1  2  1  0  0  0  0
  1  5  2  0  0  0  0
  1  6  1  0  0  0  0
  2  3  1  0  0  0  0
  2 13  1  0  0  0  0
  2 14  1  0  0  0  0
  3  4  1  0  0  0  0
  3 15  1  0  0  0  0
  3 16  1  0  0  0  0
  4  5  1  0  0  0  0
  4 17  1  0  0  0  0
  4 18  1  0  0  0  0
  5  8  1  0  0  0  0
  6  7  1  0  0  0  0
  6  9  2  0  0  0  0
  7 10  1  0  0  0  0
  7 19  1  0  0  0  0
  7 20  1  0  0  0  0
  8 11  2  0  0  0  0
  8 21  1  0  0  0  0
  9 11  1  0  0  0  0
  9 22  1  0  0  0  0
 10 12  1  0  0  0  0
 10 23  1  0  0  0  0
 10 24  1  0  0  0  0
 11 25  1  0  0  0  0
 12 26  1  0  0  0  0
 12 27  1  0  0  0  0
 12 28  1  0  0  0  0
M  END
> <PUBCHEM_COMPOUND_CID>
583029

> <PUBCHEM_CONFORMER_RMSD>
0.6

> <PUBCHEM_CONFORMER_DIVERSEORDER>
1
4
3
5
6
2

> <PUBCHEM_MMFF94_PARTIAL_CHARGES>
12
1 -0.14
11 -0.15
2 0.14
21 0.15
22 0.15
25 0.15
4 0.14
5 -0.14
6 -0.14
7 0.14
8 -0.15
9 -0.15

> <PUBCHEM_EFFECTIVE_ROTOR_COUNT>
2.6

> <PUBCHEM_PHARMACOPHORE_FEATURES>
3
1 12 hydrophobe
5 1 2 3 4 5 rings
6 1 5 6 8 9 11 rings

> <PUBCHEM_HEAVY_ATOM_COUNT>
12

> <PUBCHEM_ATOM_DEF_STEREO_COUNT>
0

> <PUBCHEM_ATOM_UDEF_STEREO_COUNT>
0

> <PUBCHEM_BOND_DEF_STEREO_COUNT>
0

> <PUBCHEM_BOND_UDEF_STEREO_COUNT>
0

> <PUBCHEM_ISOTOPIC_ATOM_COUNT>
0

> <PUBCHEM_COMPONENT_COUNT>
1

> <PUBCHEM_CACTVS_TAUTO_COUNT>
1

> <PUBCHEM_CONFORMER_ID>
0008E57500000001

> <PUBCHEM_MMFF94_ENERGY>
24.3328

> <PUBCHEM_FEATURE_SELFOVERLAP>
15.306

> <PUBCHEM_SHAPE_FINGERPRINT>
100427 49 17762615092765825555
11206711 2 18337406954148733383
12138202 97 18333450958430145550
12423570 1 8243828518123314995
12716758 59 18335419084402015770
13024252 1 17632013052903400347
13380535 21 18263073473951894275
14614273 12 18271812370783786917
14648413 74 17331958833828800089
15669948 3 18410863122840610194
15775835 57 18201435913214215116
16945 1 18337965518835082635
17134986 127 18052536874420752604
193761 8 18121784091084383939
20510252 161 18335135371599638168
20645477 56 18409726262298657904
20871998 184 18261386698508171399
21040471 1 18265063611483444443
21524375 3 18199468942577770264
22802520 49 18115007715028128270
23402539 116 18335428919687362878
23552423 10 17689440803284006481
23557571 272 18116418264224822556
23559900 14 18259704519813149792
241688 4 15743038221051766395
2748010 2 17905343831302479883
3071541 250 17619624687984677063
53812653 8 18412547638614460499
6333449 129 18335702719599583208
7364860 26 17759524760706621462
81228 2 18265900159274783162

> <PUBCHEM_SHAPE_MULTIPOLES>
246.95
4.66
2.43
0.73
5.5
0.3
-0.01
-1.64
0.82
-1.58
0.08
0.16
-0.03
-0.13

> <PUBCHEM_SHAPE_SELFOVERLAP>
518.279

> <PUBCHEM_SHAPE_VOLUME>
134.6

> <PUBCHEM_COORDINATE_TYPE>
2
5
10

$$$$

