47205127
  -OEChem-06241222582D

 34 35  0     1  0  0  0  0  0999 V2000
    2.0000   -1.0194    0.0000 Br  0  0  0  0  0  0  0  0  0  0  0  0
    3.7320   -0.0194    0.0000 S   0  0  0  0  0  0  0  0  0  0  0  0
    3.7320   -4.0194    0.0000 F   0  0  0  0  0  0  0  0  0  0  0  0
    3.7891    3.0684    0.0000 O   0  0  0  0  0  0  0  0  0  0  0  0
    4.7320   -0.0194    0.0000 O   0  0  0  0  0  0  0  0  0  0  0  0
    2.7320   -0.0194    0.0000 O   0  0  0  0  0  0  0  0  0  0  0  0
    3.7320    0.9806    0.0000 N   0  0  0  0  0  0  0  0  0  0  0  0
    4.5981    2.4806    0.0000 C   0  0  3  0  0  0  0  0  0  0  0  0
    4.5981    1.4806    0.0000 C   0  0  3  0  0  0  0  0  0  0  0  0
    5.4071    3.0684    0.0000 C   0  0  0  0  0  0  0  0  0  0  0  0
    5.0981    4.0194    0.0000 C   0  0  0  0  0  0  0  0  0  0  0  0
    4.0981    4.0194    0.0000 C   0  0  0  0  0  0  0  0  0  0  0  0
    5.4641    0.9806    0.0000 C   0  0  0  0  0  0  0  0  0  0  0  0
    3.7320   -1.0194    0.0000 C   0  0  0  0  0  0  0  0  0  0  0  0
    2.8660   -1.5194    0.0000 C   0  0  0  0  0  0  0  0  0  0  0  0
    4.5981   -1.5194    0.0000 C   0  0  0  0  0  0  0  0  0  0  0  0
    2.8660   -2.5194    0.0000 C   0  0  0  0  0  0  0  0  0  0  0  0
    4.5981   -2.5194    0.0000 C   0  0  0  0  0  0  0  0  0  0  0  0
    3.7320   -3.0194    0.0000 C   0  0  0  0  0  0  0  0  0  0  0  0
    4.0456    2.1991    0.0000 H   0  0  0  0  0  0  0  0  0  0  0  0
    4.5981    0.8606    0.0000 H   0  0  0  0  0  0  0  0  0  0  0  0
    5.7171    2.5314    0.0000 H   0  0  0  0  0  0  0  0  0  0  0  0
    5.9735    3.3205    0.0000 H   0  0  0  0  0  0  0  0  0  0  0  0
    5.7045    4.1483    0.0000 H   0  0  0  0  0  0  0  0  0  0  0  0
    5.0333    4.6360    0.0000 H   0  0  0  0  0  0  0  0  0  0  0  0
    4.1629    4.6360    0.0000 H   0  0  0  0  0  0  0  0  0  0  0  0
    3.4916    4.1483    0.0000 H   0  0  0  0  0  0  0  0  0  0  0  0
    3.1951    1.2906    0.0000 H   0  0  0  0  0  0  0  0  0  0  0  0
    5.1541    0.4436    0.0000 H   0  0  0  0  0  0  0  0  0  0  0  0
    6.0010    0.6706    0.0000 H   0  0  0  0  0  0  0  0  0  0  0  0
    5.7741    1.5175    0.0000 H   0  0  0  0  0  0  0  0  0  0  0  0
    5.1350   -1.2094    0.0000 H   0  0  0  0  0  0  0  0  0  0  0  0
    2.3291   -2.8294    0.0000 H   0  0  0  0  0  0  0  0  0  0  0  0
    5.1350   -2.8294    0.0000 H   0  0  0  0  0  0  0  0  0  0  0  0
  1 15  1  0  0  0  0
  2  5  2  0  0  0  0
  2  6  2  0  0  0  0
  2  7  1  0  0  0  0
  2 14  1  0  0  0  0
  3 19  1  0  0  0  0
  4  8  1  0  0  0  0
  4 12  1  0  0  0  0
  7  9  1  0  0  0  0
  7 28  1  0  0  0  0
  8  9  1  0  0  0  0
  8 10  1  0  0  0  0
  8 20  1  0  0  0  0
  9 13  1  0  0  0  0
  9 21  1  0  0  0  0
 10 11  1  0  0  0  0
 10 22  1  0  0  0  0
 10 23  1  0  0  0  0
 11 12  1  0  0  0  0
 11 24  1  0  0  0  0
 11 25  1  0  0  0  0
 12 26  1  0  0  0  0
 12 27  1  0  0  0  0
 13 29  1  0  0  0  0
 13 30  1  0  0  0  0
 13 31  1  0  0  0  0
 14 15  2  0  0  0  0
 14 16  1  0  0  0  0
 15 17  1  0  0  0  0
 16 18  2  0  0  0  0
 16 32  1  0  0  0  0
 17 19  2  0  0  0  0
 17 33  1  0  0  0  0
 18 19  1  0  0  0  0
 18 34  1  0  0  0  0
M  END
> <PUBCHEM_COMPOUND_CID>
47205127

> <PUBCHEM_COMPOUND_CANONICALIZED>
1

> <PUBCHEM_CACTVS_COMPLEXITY>
400

> <PUBCHEM_CACTVS_HBOND_ACCEPTOR>
5

> <PUBCHEM_CACTVS_HBOND_DONOR>
1

> <PUBCHEM_CACTVS_ROTATABLE_BOND>
4

> <PUBCHEM_CACTVS_SUBSKEYS>
AAADccByMQBAEAAAAAAAAAAAAAAAASAAAAAwAAAAAAAAAAABAAAAHwRQQAABqDzh0A4yAYBABAKAACBCAHBCABAgAAQIiJgAAKgKICKAkRCDIAAkkAAIiheQUAEAAAAAAAAAAEAAAAAAAAAAgAAAAAAAAA==

> <PUBCHEM_IUPAC_OPENEYE_NAME>
2-bromo-4-fluoro-N-(1-tetrahydrofuran-2-ylethyl)benzenesulfonamide

> <PUBCHEM_IUPAC_CAS_NAME>
2-bromo-4-fluoro-N-[1-(2-oxolanyl)ethyl]benzenesulfonamide

> <PUBCHEM_IUPAC_NAME>
2-bromo-4-fluoro-N-[1-(oxolan-2-yl)ethyl]benzenesulfonamide

> <PUBCHEM_IUPAC_SYSTEMATIC_NAME>
2-bromanyl-4-fluoranyl-N-[1-(oxolan-2-yl)ethyl]benzenesulfonamide

> <PUBCHEM_IUPAC_TRADITIONAL_NAME>
2-bromo-4-fluoro-N-[1-(tetrahydrofuryl)ethyl]benzenesulfonamide

> <PUBCHEM_IUPAC_INCHI>
InChI=1S/C12H15BrFNO3S/c1-8(11-3-2-6-18-11)15-19(16,17)12-5-4-9(14)7-10(12)13/h4-5,7-8,11,15H,2-3,6H2,1H3

> <PUBCHEM_IUPAC_INCHIKEY>
QXYNTMNMYQBXPK-UHFFFAOYSA-N

> <PUBCHEM_XLOGP3_AA>
2.5

> <PUBCHEM_EXACT_MASS>
350.994005

> <PUBCHEM_MOLECULAR_FORMULA>
C12H15BrFNO3S

> <PUBCHEM_MOLECULAR_WEIGHT>
352.219803

> <PUBCHEM_OPENEYE_CAN_SMILES>
CC(C1CCCO1)NS(=O)(=O)C2=C(C=C(C=C2)F)Br

> <PUBCHEM_OPENEYE_ISO_SMILES>
CC(C1CCCO1)NS(=O)(=O)C2=C(C=C(C=C2)F)Br

> <PUBCHEM_CACTVS_TPSA>
63.8

> <PUBCHEM_MONOISOTOPIC_WEIGHT>
350.994005

> <PUBCHEM_TOTAL_CHARGE>
0

> <PUBCHEM_HEAVY_ATOM_COUNT>
19

> <PUBCHEM_ATOM_DEF_STEREO_COUNT>
0

> <PUBCHEM_ATOM_UDEF_STEREO_COUNT>
2

> <PUBCHEM_BOND_DEF_STEREO_COUNT>
0

> <PUBCHEM_BOND_UDEF_STEREO_COUNT>
0

> <PUBCHEM_ISOTOPIC_ATOM_COUNT>
0

> <PUBCHEM_COMPONENT_COUNT>
1

> <PUBCHEM_CACTVS_TAUTO_COUNT>
1

> <PUBCHEM_COORDINATE_TYPE>
1
5
255

> <PUBCHEM_BONDANNOTATIONS>
14  15  8
14  16  8
15  17  8
16  18  8
17  19  8
18  19  8
8  10  3
9  13  3

$$$$

