9746
  -OEChem-06261204013D

 11 11  0     0  0  0  0  0  0999 V2000
    2.2983    0.0490    0.0001 F   0  0  0  0  0  0  0  0  0  0  0  0
    0.3623   -1.1963    0.0000 N   0  0  0  0  0  0  0  0  0  0  0  0
   -1.1231    1.1717    0.0000 C   0  0  0  0  0  0  0  0  0  0  0  0
    0.2665    1.2194    0.0000 C   0  0  0  0  0  0  0  0  0  0  0  0
   -1.7710   -0.0587    0.0001 C   0  0  0  0  0  0  0  0  0  0  0  0
    0.9567    0.0180    0.0000 C   0  0  0  0  0  0  0  0  0  0  0  0
   -0.9897   -1.2030    0.0000 C   0  0  0  0  0  0  0  0  0  0  0  0
   -1.7002    2.0915    0.0000 H   0  0  0  0  0  0  0  0  0  0  0  0
    0.7923    2.1673    0.0000 H   0  0  0  0  0  0  0  0  0  0  0  0
   -2.8532   -0.1199    0.0001 H   0  0  0  0  0  0  0  0  0  0  0  0
   -1.4464   -2.1872    0.0000 H   0  0  0  0  0  0  0  0  0  0  0  0
  1  6  1  0  0  0  0
  2  6  1  0  0  0  0
  2  7  2  0  0  0  0
  3  4  1  0  0  0  0
  3  5  2  0  0  0  0
  3  8  1  0  0  0  0
  4  6  2  0  0  0  0
  4  9  1  0  0  0  0
  5  7  1  0  0  0  0
  5 10  1  0  0  0  0
  7 11  1  0  0  0  0
M  END
> <PUBCHEM_COMPOUND_CID>
9746

> <PUBCHEM_CONFORMER_RMSD>
0.4

> <PUBCHEM_CONFORMER_DIVERSEORDER>
1

> <PUBCHEM_MMFF94_PARTIAL_CHARGES>
11
1 -0.19
10 0.15
11 0.15
2 -0.62
3 -0.15
4 -0.15
5 -0.15
6 0.5
7 0.16
8 0.15
9 0.15

> <PUBCHEM_EFFECTIVE_ROTOR_COUNT>
0

> <PUBCHEM_PHARMACOPHORE_FEATURES>
2
1 2 acceptor
6 2 3 4 5 6 7 rings

> <PUBCHEM_HEAVY_ATOM_COUNT>
7

> <PUBCHEM_ATOM_DEF_STEREO_COUNT>
0

> <PUBCHEM_ATOM_UDEF_STEREO_COUNT>
0

> <PUBCHEM_BOND_DEF_STEREO_COUNT>
0

> <PUBCHEM_BOND_UDEF_STEREO_COUNT>
0

> <PUBCHEM_ISOTOPIC_ATOM_COUNT>
0

> <PUBCHEM_COMPONENT_COUNT>
1

> <PUBCHEM_CACTVS_TAUTO_COUNT>
1

> <PUBCHEM_CONFORMER_ID>
0000261200000001

> <PUBCHEM_MMFF94_ENERGY>
13.2899

> <PUBCHEM_FEATURE_SELFOVERLAP>
10.148

> <PUBCHEM_SHAPE_FINGERPRINT>
16714656 1 18410849962707212036
20096714 4 18122061172071699729
21040471 1 18266459999724655301
23552423 10 18272644688596919006
29004967 10 18201428182046027817

> <PUBCHEM_SHAPE_MULTIPOLES>
131.8
2.11
1.43
0.59
0.64
0.02
0
-0.03
0
-0.27
0
-0.04
0.02
0

> <PUBCHEM_SHAPE_SELFOVERLAP>
272.238

> <PUBCHEM_SHAPE_VOLUME>
75.6

> <PUBCHEM_COORDINATE_TYPE>
2
5
10

$$$$

