13205
  -OEChem-06261207533D

 19 19  0     0  0  0  0  0  0999 V2000
   -2.4418   -0.7559    0.0000 N   0  0  0  0  0  0  0  0  0  0  0  0
    2.4421   -0.7554    0.0000 N   0  0  0  0  0  0  0  0  0  0  0  0
    0.0000   -0.7659    0.0000 C   0  0  0  0  0  0  0  0  0  0  0  0
   -1.2080   -0.0685    0.0000 C   0  0  0  0  0  0  0  0  0  0  0  0
    1.2080   -0.0683    0.0000 C   0  0  0  0  0  0  0  0  0  0  0  0
    0.0002   -2.2632    0.0000 C   0  0  0  0  0  0  0  0  0  0  0  0
   -1.2081    1.3265    0.0000 C   0  0  0  0  0  0  0  0  0  0  0  0
    1.2078    1.3267    0.0000 C   0  0  0  0  0  0  0  0  0  0  0  0
   -0.0002    2.0240    0.0000 C   0  0  0  0  0  0  0  0  0  0  0  0
    0.0001   -2.6404   -1.0274 H   0  0  0  0  0  0  0  0  0  0  0  0
    0.8598   -2.6824    0.5315 H   0  0  0  0  0  0  0  0  0  0  0  0
   -0.8593   -2.6826    0.5317 H   0  0  0  0  0  0  0  0  0  0  0  0
   -2.1421    1.8827    0.0000 H   0  0  0  0  0  0  0  0  0  0  0  0
    2.1416    1.8831    0.0000 H   0  0  0  0  0  0  0  0  0  0  0  0
   -0.0003    3.1101    0.0001 H   0  0  0  0  0  0  0  0  0  0  0  0
   -2.4932   -1.7519   -0.1550 H   0  0  0  0  0  0  0  0  0  0  0  0
   -3.3012   -0.2211   -0.0072 H   0  0  0  0  0  0  0  0  0  0  0  0
    2.4937   -1.7515   -0.1549 H   0  0  0  0  0  0  0  0  0  0  0  0
    3.3013   -0.2204   -0.0071 H   0  0  0  0  0  0  0  0  0  0  0  0
  1  4  1  0  0  0  0
  1 16  1  0  0  0  0
  1 17  1  0  0  0  0
  2  5  1  0  0  0  0
  2 18  1  0  0  0  0
  2 19  1  0  0  0  0
  3  4  2  0  0  0  0
  3  5  1  0  0  0  0
  3  6  1  0  0  0  0
  4  7  1  0  0  0  0
  5  8  2  0  0  0  0
  6 10  1  0  0  0  0
  6 11  1  0  0  0  0
  6 12  1  0  0  0  0
  7  9  2  0  0  0  0
  7 13  1  0  0  0  0
  8  9  1  0  0  0  0
  8 14  1  0  0  0  0
  9 15  1  0  0  0  0
M  END
> <PUBCHEM_COMPOUND_CID>
13205

> <PUBCHEM_CONFORMER_RMSD>
0.4

> <PUBCHEM_CONFORMER_DIVERSEORDER>
1

> <PUBCHEM_MMFF94_PARTIAL_CHARGES>
16
1 -0.9
13 0.15
14 0.15
15 0.15
16 0.4
17 0.4
18 0.4
19 0.4
2 -0.9
3 -0.14
4 0.1
5 0.1
6 0.14
7 -0.15
8 -0.15
9 -0.15

> <PUBCHEM_EFFECTIVE_ROTOR_COUNT>
0

> <PUBCHEM_PHARMACOPHORE_FEATURES>
5
1 1 cation
1 1 donor
1 2 cation
1 2 donor
6 3 4 5 7 8 9 rings

> <PUBCHEM_HEAVY_ATOM_COUNT>
9

> <PUBCHEM_ATOM_DEF_STEREO_COUNT>
0

> <PUBCHEM_ATOM_UDEF_STEREO_COUNT>
0

> <PUBCHEM_BOND_DEF_STEREO_COUNT>
0

> <PUBCHEM_BOND_UDEF_STEREO_COUNT>
0

> <PUBCHEM_ISOTOPIC_ATOM_COUNT>
0

> <PUBCHEM_COMPONENT_COUNT>
1

> <PUBCHEM_CACTVS_TAUTO_COUNT>
1

> <PUBCHEM_CONFORMER_ID>
0000339500000001

> <PUBCHEM_MMFF94_ENERGY>
46.8391

> <PUBCHEM_FEATURE_SELFOVERLAP>
25.371

> <PUBCHEM_SHAPE_FINGERPRINT>
12423570 1 11153127476208661681
16945 1 9222068561535902408
18185500 45 9367343725810089977
193761 8 9220750247152039370
21040471 1 9295285045187582180
23552423 10 8211103955271961681
241688 4 9217397836130508829
2748010 2 9439403544620179720
29004967 10 7997699734983964567

> <PUBCHEM_SHAPE_MULTIPOLES>
175.25
2.34
2.26
0.6
0
0.14
0
0.43
0
0
0
0
-0.01
0

> <PUBCHEM_SHAPE_SELFOVERLAP>
363.735

> <PUBCHEM_SHAPE_VOLUME>
101.2

> <PUBCHEM_COORDINATE_TYPE>
2
5
10

$$$$

