14395
  -OEChem-06241222433D

 44 46  0     1  0  0  0  0  0999 V2000
   -4.2511    3.2685   -1.3873 Cl  0  0  0  0  0  0  0  0  0  0  0  0
   -2.1431   -1.8184    1.7165 S   0  0  0  0  0  0  0  0  0  0  0  0
    4.3097    2.1890    0.0293 N   0  0  0  0  0  0  0  0  0  0  0  0
   -0.2256    0.1867   -0.4252 C   0  0  1  0  0  0  0  0  0  0  0  0
    0.6802    1.1100    0.4074 C   0  0  0  0  0  0  0  0  0  0  0  0
    0.3076   -1.2340   -0.5128 C   0  0  0  0  0  0  0  0  0  0  0  0
    2.0828    1.1607   -0.1828 C   0  0  0  0  0  0  0  0  0  0  0  0
   -1.7046    0.4004   -0.1029 C   0  0  0  0  0  0  0  0  0  0  0  0
    0.3055   -2.1274    0.5704 C   0  0  0  0  0  0  0  0  0  0  0  0
    2.9897    2.1117    0.5911 C   0  0  0  0  0  0  0  0  0  0  0  0
   -2.5316   -0.3526    0.7563 C   0  0  0  0  0  0  0  0  0  0  0  0
   -0.3461   -1.7743    1.8710 C   0  0  0  0  0  0  0  0  0  0  0  0
    0.8813   -1.6595   -1.7293 C   0  0  0  0  0  0  0  0  0  0  0  0
   -2.2821    1.5283   -0.7473 C   0  0  0  0  0  0  0  0  0  0  0  0
    0.8662   -3.4098    0.4173 C   0  0  0  0  0  0  0  0  0  0  0  0
   -3.8864    0.0320    0.9084 C   0  0  0  0  0  0  0  0  0  0  0  0
    1.4348   -2.9323   -1.8687 C   0  0  0  0  0  0  0  0  0  0  0  0
   -3.6158    1.8930   -0.5762 C   0  0  0  0  0  0  0  0  0  0  0  0
    1.4292   -3.8085   -0.7925 C   0  0  0  0  0  0  0  0  0  0  0  0
   -4.4225    1.1388    0.2538 C   0  0  0  0  0  0  0  0  0  0  0  0
    4.9974    0.8896    0.0934 C   0  0  0  0  0  0  0  0  0  0  0  0
    5.1243    3.2082    0.7101 C   0  0  0  0  0  0  0  0  0  0  0  0
   -0.1379    0.5610   -1.4579 H   0  0  0  0  0  0  0  0  0  0  0  0
    0.2689    2.1283    0.4077 H   0  0  0  0  0  0  0  0  0  0  0  0
    0.7339    0.8188    1.4580 H   0  0  0  0  0  0  0  0  0  0  0  0
    2.5053    0.1529   -0.1539 H   0  0  0  0  0  0  0  0  0  0  0  0
    2.0370    1.4720   -1.2341 H   0  0  0  0  0  0  0  0  0  0  0  0
    3.0232    1.8101    1.6469 H   0  0  0  0  0  0  0  0  0  0  0  0
    2.5248    3.1062    0.5681 H   0  0  0  0  0  0  0  0  0  0  0  0
   -0.0757   -2.5146    2.6335 H   0  0  0  0  0  0  0  0  0  0  0  0
   -0.0123   -0.8227    2.2811 H   0  0  0  0  0  0  0  0  0  0  0  0
    0.9105   -0.9915   -2.5879 H   0  0  0  0  0  0  0  0  0  0  0  0
   -1.6614    2.1395   -1.4036 H   0  0  0  0  0  0  0  0  0  0  0  0
    0.8580   -4.1144    1.2461 H   0  0  0  0  0  0  0  0  0  0  0  0
   -4.5559   -0.5347    1.5558 H   0  0  0  0  0  0  0  0  0  0  0  0
    1.8715   -3.2343   -2.8159 H   0  0  0  0  0  0  0  0  0  0  0  0
    1.8568   -4.8013   -0.8937 H   0  0  0  0  0  0  0  0  0  0  0  0
   -5.4673    1.3943    0.4076 H   0  0  0  0  0  0  0  0  0  0  0  0
    6.0389    0.9934   -0.2344 H   0  0  0  0  0  0  0  0  0  0  0  0
    5.0039    0.4732    1.1072 H   0  0  0  0  0  0  0  0  0  0  0  0
    4.5535    0.1614   -0.5920 H   0  0  0  0  0  0  0  0  0  0  0  0
    4.6468    4.1917    0.6367 H   0  0  0  0  0  0  0  0  0  0  0  0
    5.2737    2.9732    1.7702 H   0  0  0  0  0  0  0  0  0  0  0  0
    6.1055    3.2999    0.2313 H   0  0  0  0  0  0  0  0  0  0  0  0
  1 18  1  0  0  0  0
  2 11  1  0  0  0  0
  2 12  1  0  0  0  0
  3 10  1  0  0  0  0
  3 21  1  0  0  0  0
  3 22  1  0  0  0  0
  4  5  1  0  0  0  0
  4  6  1  0  0  0  0
  4  8  1  0  0  0  0
  4 23  1  0  0  0  0
  5  7  1  0  0  0  0
  5 24  1  0  0  0  0
  5 25  1  0  0  0  0
  6  9  1  0  0  0  0
  6 13  2  0  0  0  0
  7 10  1  0  0  0  0
  7 26  1  0  0  0  0
  7 27  1  0  0  0  0
  8 11  2  0  0  0  0
  8 14  1  0  0  0  0
  9 12  1  0  0  0  0
  9 15  2  0  0  0  0
 10 28  1  0  0  0  0
 10 29  1  0  0  0  0
 11 16  1  0  0  0  0
 12 30  1  0  0  0  0
 12 31  1  0  0  0  0
 13 17  1  0  0  0  0
 13 32  1  0  0  0  0
 14 18  2  0  0  0  0
 14 33  1  0  0  0  0
 15 19  1  0  0  0  0
 15 34  1  0  0  0  0
 16 20  2  0  0  0  0
 16 35  1  0  0  0  0
 17 19  2  0  0  0  0
 17 36  1  0  0  0  0
 18 20  1  0  0  0  0
 19 37  1  0  0  0  0
 20 38  1  0  0  0  0
 21 39  1  0  0  0  0
 21 40  1  0  0  0  0
 21 41  1  0  0  0  0
 22 42  1  0  0  0  0
 22 43  1  0  0  0  0
 22 44  1  0  0  0  0
M  END
> <PUBCHEM_COMPOUND_CID>
14395

> <PUBCHEM_CONFORMER_RMSD>
0.8

> <PUBCHEM_CONFORMER_DIVERSEORDER>
4
1
11
10
16
13
15
17
2
12
5
18
3
7
9
14
8
6

> <PUBCHEM_MMFF94_PARTIAL_CHARGES>
27
1 -0.18
10 0.27
11 0.1
12 0.37
13 -0.15
14 -0.15
15 -0.15
16 -0.15
17 -0.15
18 0.18
19 -0.15
2 -0.33
20 -0.15
21 0.27
22 0.27
3 -0.81
32 0.15
33 0.15
34 0.15
35 0.15
36 0.15
37 0.15
38 0.15
4 0.29
6 -0.14
8 -0.14
9 -0.14

> <PUBCHEM_EFFECTIVE_ROTOR_COUNT>
4.6

> <PUBCHEM_PHARMACOPHORE_FEATURES>
4
1 3 cation
6 6 9 13 15 17 19 rings
6 8 11 14 16 18 20 rings
7 2 4 6 8 9 11 12 rings

> <PUBCHEM_HEAVY_ATOM_COUNT>
22

> <PUBCHEM_ATOM_DEF_STEREO_COUNT>
0

> <PUBCHEM_ATOM_UDEF_STEREO_COUNT>
1

> <PUBCHEM_BOND_DEF_STEREO_COUNT>
0

> <PUBCHEM_BOND_UDEF_STEREO_COUNT>
0

> <PUBCHEM_ISOTOPIC_ATOM_COUNT>
0

> <PUBCHEM_COMPONENT_COUNT>
1

> <PUBCHEM_CACTVS_TAUTO_COUNT>
1

> <PUBCHEM_CONFORMER_ID>
0000383B00000004

> <PUBCHEM_MMFF94_ENERGY>
69.7445

> <PUBCHEM_FEATURE_SELFOVERLAP>
20.309

> <PUBCHEM_SHAPE_FINGERPRINT>
10764073 3 17629499732995480402
107951 10 18131064897278452794
11578080 2 18128528469792449869
12293681 160 17479436289676112810
12549972 3 17771606117638162073
12592029 89 18334011709539743514
12707595 3 17905603655544444903
12788726 201 17759546382020720170
13004483 165 17036982425712757242
13540713 4 18129092498214957857
13681431 1 17826512468058584046
15042514 8 17764021372401498890
15230672 131 18341889672731683646
15664445 248 17541379480692581991
16945 1 16481318313184045035
17980427 26 17840890751998477303
1813 80 16591947848359699662
18915476 22 18188761855460118023
20600515 1 17329734504472576467
21033648 29 18188782630318020256
21120745 212 17041468420153176300
21524375 3 18263645073810973185
22182313 1 18059278972943905497
23419403 2 17975091531535703054
23559900 14 18051414268622021771
23598288 3 17838893733934703924
23728640 28 18120660119870766178
2748010 2 17984388950837657835
3298306 158 18409726279472927814
3411729 13 18268435796376592233
376196 1 18341063985357130384
5265222 85 18196638620145660620
532947 4 18334852874864043550
6138700 20 18263921215446234966
633830 44 17459446957956185616
7364860 26 18265050417365049015
7399639 24 18338783551729341827
81228 2 17325508604477156138
9862522 239 18265048029373833994
9981440 41 18411424990188109785

> <PUBCHEM_SHAPE_MULTIPOLES>
453.49
8.44
4.77
1.55
2.54
1.37
0.11
-11.5
-0.51
3.5
0.82
-0.39
0.97
3.07

> <PUBCHEM_SHAPE_SELFOVERLAP>
936.767

> <PUBCHEM_SHAPE_VOLUME>
260.3

> <PUBCHEM_COORDINATE_TYPE>
2
5
10

$$$$

