47205222
  -OEChem-06241222582D

 33 34  0     0  0  0  0  0  0999 V2000
    3.7320   -1.1012    0.0000 O   0  0  0  0  0  0  0  0  0  0  0  0
    4.5981    0.3988    0.0000 O   0  0  0  0  0  0  0  0  0  0  0  0
    6.3301    0.3988    0.0000 N   0  0  0  0  0  0  0  0  0  0  0  0
    8.1097    1.4921    0.0000 N   0  0  0  0  0  0  0  0  0  0  0  0
    8.7788    2.2352    0.0000 N   0  0  0  0  0  0  0  0  0  0  0  0
    6.3301    1.3988    0.0000 C   0  0  0  0  0  0  0  0  0  0  0  0
    5.4641   -1.1012    0.0000 C   0  0  0  0  0  0  0  0  0  0  0  0
    7.1962    1.8988    0.0000 C   0  0  0  0  0  0  0  0  0  0  0  0
    4.5981   -1.6012    0.0000 C   0  0  0  0  0  0  0  0  0  0  0  0
    5.4641   -0.1012    0.0000 C   0  0  0  0  0  0  0  0  0  0  0  0
    6.3301   -1.6012    0.0000 C   0  0  0  0  0  0  0  0  0  0  0  0
    4.5981   -2.6012    0.0000 C   0  0  0  0  0  0  0  0  0  0  0  0
    7.3007    2.8933    0.0000 C   0  0  0  0  0  0  0  0  0  0  0  0
    6.3301   -2.6012    0.0000 C   0  0  0  0  0  0  0  0  0  0  0  0
    5.4641   -3.1012    0.0000 C   0  0  0  0  0  0  0  0  0  0  0  0
    2.8660   -1.6012    0.0000 C   0  0  0  0  0  0  0  0  0  0  0  0
    8.2788    3.1012    0.0000 C   0  0  0  0  0  0  0  0  0  0  0  0
    2.0000   -1.1012    0.0000 C   0  0  0  0  0  0  0  0  0  0  0  0
    6.1181    1.9814    0.0000 H   0  0  0  0  0  0  0  0  0  0  0  0
    5.7196    1.2911    0.0000 H   0  0  0  0  0  0  0  0  0  0  0  0
    6.8671    0.0888    0.0000 H   0  0  0  0  0  0  0  0  0  0  0  0
    6.8671   -1.2912    0.0000 H   0  0  0  0  0  0  0  0  0  0  0  0
    4.0611   -2.9112    0.0000 H   0  0  0  0  0  0  0  0  0  0  0  0
    6.8399    3.3082    0.0000 H   0  0  0  0  0  0  0  0  0  0  0  0
    8.2386    0.8856    0.0000 H   0  0  0  0  0  0  0  0  0  0  0  0
    6.8671   -2.9112    0.0000 H   0  0  0  0  0  0  0  0  0  0  0  0
    5.4641   -3.7212    0.0000 H   0  0  0  0  0  0  0  0  0  0  0  0
    2.4675   -2.0762    0.0000 H   0  0  0  0  0  0  0  0  0  0  0  0
    3.2646   -2.0762    0.0000 H   0  0  0  0  0  0  0  0  0  0  0  0
    8.5310    3.6676    0.0000 H   0  0  0  0  0  0  0  0  0  0  0  0
    2.3100   -0.5643    0.0000 H   0  0  0  0  0  0  0  0  0  0  0  0
    1.4631   -0.7912    0.0000 H   0  0  0  0  0  0  0  0  0  0  0  0
    1.6900   -1.6382    0.0000 H   0  0  0  0  0  0  0  0  0  0  0  0
  1  9  1  0  0  0  0
  1 16  1  0  0  0  0
  2 10  2  0  0  0  0
  3  6  1  0  0  0  0
  3 10  1  0  0  0  0
  3 21  1  0  0  0  0
  4  5  1  0  0  0  0
  4  8  1  0  0  0  0
  4 25  1  0  0  0  0
  5 17  2  0  0  0  0
  6  8  1  0  0  0  0
  6 19  1  0  0  0  0
  6 20  1  0  0  0  0
  7  9  1  0  0  0  0
  7 10  1  0  0  0  0
  7 11  2  0  0  0  0
  8 13  2  0  0  0  0
  9 12  2  0  0  0  0
 11 14  1  0  0  0  0
 11 22  1  0  0  0  0
 12 15  1  0  0  0  0
 12 23  1  0  0  0  0
 13 17  1  0  0  0  0
 13 24  1  0  0  0  0
 14 15  2  0  0  0  0
 14 26  1  0  0  0  0
 15 27  1  0  0  0  0
 16 18  1  0  0  0  0
 16 28  1  0  0  0  0
 16 29  1  0  0  0  0
 17 30  1  0  0  0  0
 18 31  1  0  0  0  0
 18 32  1  0  0  0  0
 18 33  1  0  0  0  0
M  END
> <PUBCHEM_COMPOUND_CID>
47205222

> <PUBCHEM_COMPOUND_CANONICALIZED>
1

> <PUBCHEM_CACTVS_COMPLEXITY>
273

> <PUBCHEM_CACTVS_HBOND_ACCEPTOR>
3

> <PUBCHEM_CACTVS_HBOND_DONOR>
2

> <PUBCHEM_CACTVS_ROTATABLE_BOND>
5

> <PUBCHEM_CACTVS_SUBSKEYS>
AAADccBzMAAAAAAAAAAAAAAAAAAAAWAAAAAwAAAAAAAAAAABwAAAHgAYAAAADAzhngY+hpLjBACqAzV3UACSDAAkogAYuaE+bNgMZraE9duWvWjm/hGI6YeYyCCOAAAAAAAIAAAAAAAAABAAAAAAAAAAAA==

> <PUBCHEM_IUPAC_OPENEYE_NAME>
2-ethoxy-N-(1H-pyrazol-5-ylmethyl)benzamide

> <PUBCHEM_IUPAC_CAS_NAME>
2-ethoxy-N-(1H-pyrazol-5-ylmethyl)benzamide

> <PUBCHEM_IUPAC_NAME>
2-ethoxy-N-(1H-pyrazol-5-ylmethyl)benzamide

> <PUBCHEM_IUPAC_SYSTEMATIC_NAME>
2-ethoxy-N-(1H-pyrazol-5-ylmethyl)benzamide

> <PUBCHEM_IUPAC_TRADITIONAL_NAME>
2-ethoxy-N-(1H-pyrazol-5-ylmethyl)benzamide

> <PUBCHEM_IUPAC_INCHI>
InChI=1S/C13H15N3O2/c1-2-18-12-6-4-3-5-11(12)13(17)14-9-10-7-8-15-16-10/h3-8H,2,9H2,1H3,(H,14,17)(H,15,16)

> <PUBCHEM_IUPAC_INCHIKEY>
XQUJQWGCQKFPEO-UHFFFAOYSA-N

> <PUBCHEM_XLOGP3_AA>
1.4

> <PUBCHEM_EXACT_MASS>
245.116427

> <PUBCHEM_MOLECULAR_FORMULA>
C13H15N3O2

> <PUBCHEM_MOLECULAR_WEIGHT>
245.2771

> <PUBCHEM_OPENEYE_CAN_SMILES>
CCOC1=CC=CC=C1C(=O)NCC2=CC=NN2

> <PUBCHEM_OPENEYE_ISO_SMILES>
CCOC1=CC=CC=C1C(=O)NCC2=CC=NN2

> <PUBCHEM_CACTVS_TPSA>
67

> <PUBCHEM_MONOISOTOPIC_WEIGHT>
245.116427

> <PUBCHEM_TOTAL_CHARGE>
0

> <PUBCHEM_HEAVY_ATOM_COUNT>
18

> <PUBCHEM_ATOM_DEF_STEREO_COUNT>
0

> <PUBCHEM_ATOM_UDEF_STEREO_COUNT>
0

> <PUBCHEM_BOND_DEF_STEREO_COUNT>
0

> <PUBCHEM_BOND_UDEF_STEREO_COUNT>
0

> <PUBCHEM_ISOTOPIC_ATOM_COUNT>
0

> <PUBCHEM_COMPONENT_COUNT>
1

> <PUBCHEM_CACTVS_TAUTO_COUNT>
4

> <PUBCHEM_COORDINATE_TYPE>
1
5
255

> <PUBCHEM_BONDANNOTATIONS>
11  14  8
12  15  8
13  17  8
14  15  8
4  5  8
4  8  8
5  17  8
7  11  8
7  9  8
8  13  8
9  12  8

$$$$

