8220
  -OEChem-06261202392D

 52 51  0     0  0  0  0  0  0999 V2000
    2.0000   -0.5000    0.0000 N   0  0  0  0  0  0  0  0  0  0  0  0
   14.1244    0.5000    0.0000 C   0  0  0  0  0  0  0  0  0  0  0  0
   13.2583    0.0000    0.0000 C   0  0  0  0  0  0  0  0  0  0  0  0
   14.9904   -0.0000    0.0000 C   0  0  0  0  0  0  0  0  0  0  0  0
   12.3923    0.5000    0.0000 C   0  0  0  0  0  0  0  0  0  0  0  0
    7.1962    0.5000    0.0000 C   0  0  0  0  0  0  0  0  0  0  0  0
    6.3301    0.0000    0.0000 C   0  0  0  0  0  0  0  0  0  0  0  0
    8.0622    0.0000    0.0000 C   0  0  0  0  0  0  0  0  0  0  0  0
   15.8564    0.5000    0.0000 C   0  0  0  0  0  0  0  0  0  0  0  0
    5.4641    0.5000    0.0000 C   0  0  0  0  0  0  0  0  0  0  0  0
   11.5263    0.0000    0.0000 C   0  0  0  0  0  0  0  0  0  0  0  0
    8.9282    0.5000    0.0000 C   0  0  0  0  0  0  0  0  0  0  0  0
   16.7224   -0.0000    0.0000 C   0  0  0  0  0  0  0  0  0  0  0  0
    4.5981   -0.0000    0.0000 C   0  0  0  0  0  0  0  0  0  0  0  0
   10.6603    0.5000    0.0000 C   0  0  0  0  0  0  0  0  0  0  0  0
    9.7942    0.0000    0.0000 C   0  0  0  0  0  0  0  0  0  0  0  0
    3.7321    0.5000    0.0000 C   0  0  0  0  0  0  0  0  0  0  0  0
   17.5885    0.5000    0.0000 C   0  0  0  0  0  0  0  0  0  0  0  0
    2.8660   -0.0000    0.0000 C   0  0  0  0  0  0  0  0  0  0  0  0
   14.5229    0.9749    0.0000 H   0  0  0  0  0  0  0  0  0  0  0  0
   13.7258    0.9749    0.0000 H   0  0  0  0  0  0  0  0  0  0  0  0
   12.8598   -0.4749    0.0000 H   0  0  0  0  0  0  0  0  0  0  0  0
   13.6569   -0.4749    0.0000 H   0  0  0  0  0  0  0  0  0  0  0  0
   15.3889   -0.4749    0.0000 H   0  0  0  0  0  0  0  0  0  0  0  0
   14.5919   -0.4749    0.0000 H   0  0  0  0  0  0  0  0  0  0  0  0
   12.7908    0.9749    0.0000 H   0  0  0  0  0  0  0  0  0  0  0  0
   11.9938    0.9749    0.0000 H   0  0  0  0  0  0  0  0  0  0  0  0
    7.5947    0.9749    0.0000 H   0  0  0  0  0  0  0  0  0  0  0  0
    6.7976    0.9749    0.0000 H   0  0  0  0  0  0  0  0  0  0  0  0
    5.9316   -0.4749    0.0000 H   0  0  0  0  0  0  0  0  0  0  0  0
    6.7287   -0.4749    0.0000 H   0  0  0  0  0  0  0  0  0  0  0  0
    8.4607   -0.4749    0.0000 H   0  0  0  0  0  0  0  0  0  0  0  0
    7.6636   -0.4749    0.0000 H   0  0  0  0  0  0  0  0  0  0  0  0
   16.2549    0.9749    0.0000 H   0  0  0  0  0  0  0  0  0  0  0  0
   15.4579    0.9749    0.0000 H   0  0  0  0  0  0  0  0  0  0  0  0
    5.0656    0.9749    0.0000 H   0  0  0  0  0  0  0  0  0  0  0  0
    5.8626    0.9749    0.0000 H   0  0  0  0  0  0  0  0  0  0  0  0
   11.9248   -0.4749    0.0000 H   0  0  0  0  0  0  0  0  0  0  0  0
   11.1278   -0.4749    0.0000 H   0  0  0  0  0  0  0  0  0  0  0  0
    8.5297    0.9749    0.0000 H   0  0  0  0  0  0  0  0  0  0  0  0
    9.3267    0.9749    0.0000 H   0  0  0  0  0  0  0  0  0  0  0  0
   16.3239   -0.4749    0.0000 H   0  0  0  0  0  0  0  0  0  0  0  0
   17.1210   -0.4749    0.0000 H   0  0  0  0  0  0  0  0  0  0  0  0
    4.1995   -0.4749    0.0000 H   0  0  0  0  0  0  0  0  0  0  0  0
    4.9966   -0.4749    0.0000 H   0  0  0  0  0  0  0  0  0  0  0  0
   10.6603    1.1200    0.0000 H   0  0  0  0  0  0  0  0  0  0  0  0
    9.7942   -0.6200    0.0000 H   0  0  0  0  0  0  0  0  0  0  0  0
    4.1306    0.9749    0.0000 H   0  0  0  0  0  0  0  0  0  0  0  0
    3.3335    0.9749    0.0000 H   0  0  0  0  0  0  0  0  0  0  0  0
   17.2785    1.0369    0.0000 H   0  0  0  0  0  0  0  0  0  0  0  0
   18.1254    0.8100    0.0000 H   0  0  0  0  0  0  0  0  0  0  0  0
   17.8985   -0.0369    0.0000 H   0  0  0  0  0  0  0  0  0  0  0  0
  1 19  3  0  0  0  0
  2  3  1  0  0  0  0
  2  4  1  0  0  0  0
  2 20  1  0  0  0  0
  2 21  1  0  0  0  0
  3  5  1  0  0  0  0
  3 22  1  0  0  0  0
  3 23  1  0  0  0  0
  4  9  1  0  0  0  0
  4 24  1  0  0  0  0
  4 25  1  0  0  0  0
  5 11  1  0  0  0  0
  5 26  1  0  0  0  0
  5 27  1  0  0  0  0
  6  7  1  0  0  0  0
  6  8  1  0  0  0  0
  6 28  1  0  0  0  0
  6 29  1  0  0  0  0
  7 10  1  0  0  0  0
  7 30  1  0  0  0  0
  7 31  1  0  0  0  0
  8 12  1  0  0  0  0
  8 32  1  0  0  0  0
  8 33  1  0  0  0  0
  9 13  1  0  0  0  0
  9 34  1  0  0  0  0
  9 35  1  0  0  0  0
 10 14  1  0  0  0  0
 10 36  1  0  0  0  0
 10 37  1  0  0  0  0
 11 15  1  0  0  0  0
 11 38  1  0  0  0  0
 11 39  1  0  0  0  0
 12 16  1  0  0  0  0
 12 40  1  0  0  0  0
 12 41  1  0  0  0  0
 13 18  1  0  0  0  0
 13 42  1  0  0  0  0
 13 43  1  0  0  0  0
 14 17  1  0  0  0  0
 14 44  1  0  0  0  0
 14 45  1  0  0  0  0
 15 16  2  3  0  0  0
 15 46  1  0  0  0  0
 16 47  1  0  0  0  0
 17 19  1  0  0  0  0
 17 48  1  0  0  0  0
 17 49  1  0  0  0  0
 18 50  1  0  0  0  0
 18 51  1  0  0  0  0
 18 52  1  0  0  0  0
M  END
> <PUBCHEM_COMPOUND_CID>
8220

> <PUBCHEM_COMPOUND_CANONICALIZED>
1

> <PUBCHEM_CACTVS_COMPLEXITY>
233

> <PUBCHEM_CACTVS_HBOND_ACCEPTOR>
1

> <PUBCHEM_CACTVS_HBOND_DONOR>
0

> <PUBCHEM_CACTVS_ROTATABLE_BOND>
14

> <PUBCHEM_CACTVS_SUBSKEYS>
AAADcfB6AAAAAAAAAAAAAAAAAAAAAAAAAAAAAAAAAAAAAAAAAAAAHAAAAAAACACBAAACAAAAAACQBCBCAAAAAAAgAAAICAAAAAgAgAIAAQAAAAAAgAAIAAsAgIAAAAAAAAAAAAAAAAAAAAAAAAAAAAAAAA==

> <PUBCHEM_IUPAC_OPENEYE_NAME>
octadec-9-enenitrile

> <PUBCHEM_IUPAC_CAS_NAME>
9-octadecenenitrile

> <PUBCHEM_IUPAC_NAME>
octadec-9-enenitrile

> <PUBCHEM_IUPAC_SYSTEMATIC_NAME>
octadec-9-enenitrile

> <PUBCHEM_IUPAC_TRADITIONAL_NAME>
octadec-9-enenitrile

> <PUBCHEM_IUPAC_INCHI>
InChI=1S/C18H33N/c1-2-3-4-5-6-7-8-9-10-11-12-13-14-15-16-17-18-19/h9-10H,2-8,11-17H2,1H3

> <PUBCHEM_IUPAC_INCHIKEY>
UIAMCVSNZQYIQS-UHFFFAOYSA-N

> <PUBCHEM_XLOGP3>
7.1

> <PUBCHEM_EXACT_MASS>
263.2613

> <PUBCHEM_MOLECULAR_FORMULA>
C18H33N

> <PUBCHEM_MOLECULAR_WEIGHT>
263.46132

> <PUBCHEM_OPENEYE_CAN_SMILES>
CCCCCCCCC=CCCCCCCCC#N

> <PUBCHEM_OPENEYE_ISO_SMILES>
CCCCCCCCC=CCCCCCCCC#N

> <PUBCHEM_CACTVS_TPSA>
23.8

> <PUBCHEM_MONOISOTOPIC_WEIGHT>
263.2613

> <PUBCHEM_TOTAL_CHARGE>
0

> <PUBCHEM_HEAVY_ATOM_COUNT>
19

> <PUBCHEM_ATOM_DEF_STEREO_COUNT>
0

> <PUBCHEM_ATOM_UDEF_STEREO_COUNT>
0

> <PUBCHEM_BOND_DEF_STEREO_COUNT>
0

> <PUBCHEM_BOND_UDEF_STEREO_COUNT>
1

> <PUBCHEM_ISOTOPIC_ATOM_COUNT>
0

> <PUBCHEM_COMPONENT_COUNT>
1

> <PUBCHEM_CACTVS_TAUTO_COUNT>
1

> <PUBCHEM_COORDINATE_TYPE>
1
5
255

> <PUBCHEM_BONDANNOTATIONS>
15  16  1

$$$$

