13881
  -OEChem-06241222403D

 20 20  0     0  0  0  0  0  0999 V2000
    1.5300   -0.0143    0.3297 O   0  0  0  0  0  0  0  0  0  0  0  0
    3.4022    0.0187   -1.0235 O   0  0  0  0  0  0  0  0  0  0  0  0
   -1.3196    1.2047   -0.1765 N   0  0  0  0  0  0  0  0  0  0  0  0
   -0.7395    0.0008   -0.3812 C   0  0  0  0  0  0  0  0  0  0  0  0
    0.6880    0.0120   -0.8160 C   0  0  0  0  0  0  0  0  0  0  0  0
   -1.3883   -1.2117   -0.2116 C   0  0  0  0  0  0  0  0  0  0  0  0
   -2.7179   -1.1871    0.1943 C   0  0  0  0  0  0  0  0  0  0  0  0
   -3.3493    0.0320    0.4149 C   0  0  0  0  0  0  0  0  0  0  0  0
   -2.6128    1.1889    0.2174 C   0  0  0  0  0  0  0  0  0  0  0  0
    2.8744   -0.0075    0.0801 C   0  0  0  0  0  0  0  0  0  0  0  0
    3.6327   -0.0366    1.3725 C   0  0  0  0  0  0  0  0  0  0  0  0
    0.9008   -0.8500   -1.4604 H   0  0  0  0  0  0  0  0  0  0  0  0
    0.8860    0.9240   -1.3928 H   0  0  0  0  0  0  0  0  0  0  0  0
   -0.8868   -2.1579   -0.3842 H   0  0  0  0  0  0  0  0  0  0  0  0
   -3.2611   -2.1161    0.3389 H   0  0  0  0  0  0  0  0  0  0  0  0
   -4.3850    0.0752    0.7318 H   0  0  0  0  0  0  0  0  0  0  0  0
   -3.0589    2.1652    0.3760 H   0  0  0  0  0  0  0  0  0  0  0  0
    3.3892   -0.9480    1.9242 H   0  0  0  0  0  0  0  0  0  0  0  0
    3.3893    0.8490    1.9647 H   0  0  0  0  0  0  0  0  0  0  0  0
    4.7063   -0.0321    1.1634 H   0  0  0  0  0  0  0  0  0  0  0  0
  1  5  1  0  0  0  0
  1 10  1  0  0  0  0
  2 10  2  0  0  0  0
  3  4  1  0  0  0  0
  3  9  2  0  0  0  0
  4  5  1  0  0  0  0
  4  6  2  0  0  0  0
  5 12  1  0  0  0  0
  5 13  1  0  0  0  0
  6  7  1  0  0  0  0
  6 14  1  0  0  0  0
  7  8  2  0  0  0  0
  7 15  1  0  0  0  0
  8  9  1  0  0  0  0
  8 16  1  0  0  0  0
  9 17  1  0  0  0  0
 10 11  1  0  0  0  0
 11 18  1  0  0  0  0
 11 19  1  0  0  0  0
 11 20  1  0  0  0  0
M  END
> <PUBCHEM_COMPOUND_CID>
13881

> <PUBCHEM_CONFORMER_RMSD>
0.6

> <PUBCHEM_CONFORMER_DIVERSEORDER>
1
9
10
3
7
13
4
6
14
11
2
5
12
8

> <PUBCHEM_MMFF94_PARTIAL_CHARGES>
15
1 -0.43
10 0.66
11 0.06
14 0.15
15 0.15
16 0.15
17 0.15
2 -0.57
3 -0.62
4 0.17
5 0.42
6 -0.15
7 -0.15
8 -0.15
9 0.16

> <PUBCHEM_EFFECTIVE_ROTOR_COUNT>
3

> <PUBCHEM_PHARMACOPHORE_FEATURES>
3
1 2 acceptor
1 3 acceptor
6 3 4 6 7 8 9 rings

> <PUBCHEM_HEAVY_ATOM_COUNT>
11

> <PUBCHEM_ATOM_DEF_STEREO_COUNT>
0

> <PUBCHEM_ATOM_UDEF_STEREO_COUNT>
0

> <PUBCHEM_BOND_DEF_STEREO_COUNT>
0

> <PUBCHEM_BOND_UDEF_STEREO_COUNT>
0

> <PUBCHEM_ISOTOPIC_ATOM_COUNT>
0

> <PUBCHEM_COMPONENT_COUNT>
1

> <PUBCHEM_CACTVS_TAUTO_COUNT>
1

> <PUBCHEM_CONFORMER_ID>
0000363900000001

> <PUBCHEM_MMFF94_ENERGY>
20.3103

> <PUBCHEM_FEATURE_SELFOVERLAP>
15.223

> <PUBCHEM_SHAPE_FINGERPRINT>
10857977 72 18334294240930481901
11062470 55 15554446288609520607
12932764 1 17704075088164255460
13024252 1 14908181958733333005
14144814 61 18273495671672703250
14325111 11 18408320012158225710
18186145 218 14996280310449518892
190213 19 17917994979437094074
19422 9 17775564247512227962
20279233 1 17748830717599722238
20645464 45 17821730537307156207
20645477 70 15482405204468388762
20715346 28 17603586313886336524
20871998 184 18187640246378955583
22485316 2 15554448478874056019
23402539 116 18334305258212569623
3248919 1 18341899592977444286
369184 2 18335423473863795523

> <PUBCHEM_SHAPE_MULTIPOLES>
209.66
6.58
1.12
0.97
4.08
0.01
-0.09
-0.05
-1.54
-1.06
-0.02
0.84
0.01
0.02

> <PUBCHEM_SHAPE_SELFOVERLAP>
426.418

> <PUBCHEM_SHAPE_VOLUME>
121

> <PUBCHEM_COORDINATE_TYPE>
2
5
10

$$$$

