582827
  -OEChem-06241222442D

 26 26  0     0  0  0  0  0  0999 V2000
    4.2634    2.0875    0.0000 S   0  0  0  0  0  0  0  0  0  0  0  0
    4.8511    2.8965    0.0000 O   0  0  0  0  0  0  0  0  0  0  0  0
    3.6756    2.8965    0.0000 O   0  0  0  0  0  0  0  0  0  0  0  0
    3.5823   -1.1739    0.0000 C   0  0  0  0  0  0  0  0  0  0  0  0
    2.9945   -1.9830    0.0000 C   0  0  0  0  0  0  0  0  0  0  0  0
    3.1756   -0.2604    0.0000 C   0  0  0  0  0  0  0  0  0  0  0  0
    3.7634    0.5486    0.0000 C   0  0  0  0  0  0  0  0  0  0  0  0
    3.4013   -2.8965    0.0000 C   0  0  0  0  0  0  0  0  0  0  0  0
    2.0000   -1.8784    0.0000 C   0  0  0  0  0  0  0  0  0  0  0  0
    3.4543    1.4997    0.0000 C   0  0  0  0  0  0  0  0  0  0  0  0
    4.7634    0.5486    0.0000 C   0  0  0  0  0  0  0  0  0  0  0  0
    5.0724    1.4997    0.0000 C   0  0  0  0  0  0  0  0  0  0  0  0
    4.0130   -1.6199    0.0000 H   0  0  0  0  0  0  0  0  0  0  0  0
    4.0963   -0.8272    0.0000 H   0  0  0  0  0  0  0  0  0  0  0  0
    3.6111   -2.0478    0.0000 H   0  0  0  0  0  0  0  0  0  0  0  0
    2.7449    0.1856    0.0000 H   0  0  0  0  0  0  0  0  0  0  0  0
    2.6616   -0.6071    0.0000 H   0  0  0  0  0  0  0  0  0  0  0  0
    2.8349   -3.1487    0.0000 H   0  0  0  0  0  0  0  0  0  0  0  0
    3.6534   -3.4629    0.0000 H   0  0  0  0  0  0  0  0  0  0  0  0
    3.9677   -2.6443    0.0000 H   0  0  0  0  0  0  0  0  0  0  0  0
    2.0648   -1.2618    0.0000 H   0  0  0  0  0  0  0  0  0  0  0  0
    1.3834   -1.8136    0.0000 H   0  0  0  0  0  0  0  0  0  0  0  0
    1.9352   -2.4950    0.0000 H   0  0  0  0  0  0  0  0  0  0  0  0
    2.8647    1.6913    0.0000 H   0  0  0  0  0  0  0  0  0  0  0  0
    5.1278    0.0470    0.0000 H   0  0  0  0  0  0  0  0  0  0  0  0
    5.6620    1.6913    0.0000 H   0  0  0  0  0  0  0  0  0  0  0  0
  1  2  2  0  0  0  0
  1  3  2  0  0  0  0
  1 10  1  0  0  0  0
  1 12  1  0  0  0  0
  4  5  1  0  0  0  0
  4  6  1  0  0  0  0
  4 13  1  0  0  0  0
  4 14  1  0  0  0  0
  5  8  1  0  0  0  0
  5  9  1  0  0  0  0
  5 15  1  0  0  0  0
  6  7  1  0  0  0  0
  6 16  1  0  0  0  0
  6 17  1  0  0  0  0
  7 10  2  0  0  0  0
  7 11  1  0  0  0  0
  8 18  1  0  0  0  0
  8 19  1  0  0  0  0
  8 20  1  0  0  0  0
  9 21  1  0  0  0  0
  9 22  1  0  0  0  0
  9 23  1  0  0  0  0
 10 24  1  0  0  0  0
 11 12  2  0  0  0  0
 11 25  1  0  0  0  0
 12 26  1  0  0  0  0
M  END
> <PUBCHEM_COMPOUND_CID>
582827

> <PUBCHEM_COMPOUND_CANONICALIZED>
1

> <PUBCHEM_CACTVS_COMPLEXITY>
302

> <PUBCHEM_CACTVS_HBOND_ACCEPTOR>
2

> <PUBCHEM_CACTVS_HBOND_DONOR>
0

> <PUBCHEM_CACTVS_ROTATABLE_BOND>
3

> <PUBCHEM_CACTVS_SUBSKEYS>
AAADccBwMABAAAAAAAAAAAAAAAAAAQAAAAAAAAAAAAAAAAAAAAAAGAQAAAAADQCEQACCAAAAAAqAAiBCAHAAAAAgAAAIAAAAAAgIAAIAAQAAAAAAgAAAAAEAAAAMAAAAAAAAAAAAAAAAAAAAAAAAAAAAAA==

> <PUBCHEM_IUPAC_OPENEYE_NAME>
3-isopentylthiophene 1,1-dioxide

> <PUBCHEM_IUPAC_CAS_NAME>
3-(3-methylbutyl)thiophene 1,1-dioxide

> <PUBCHEM_IUPAC_NAME>
3-(3-methylbutyl)thiophene 1,1-dioxide

> <PUBCHEM_IUPAC_SYSTEMATIC_NAME>
3-(3-methylbutyl)thiophene 1,1-dioxide

> <PUBCHEM_IUPAC_TRADITIONAL_NAME>
3-isoamylthiophene 1,1-dioxide

> <PUBCHEM_IUPAC_INCHI>
InChI=1S/C9H14O2S/c1-8(2)3-4-9-5-6-12(10,11)7-9/h5-8H,3-4H2,1-2H3

> <PUBCHEM_IUPAC_INCHIKEY>
YUSFUTAKFKSIID-UHFFFAOYSA-N

> <PUBCHEM_XLOGP3_AA>
1.9

> <PUBCHEM_EXACT_MASS>
186.071451

> <PUBCHEM_MOLECULAR_FORMULA>
C9H14O2S

> <PUBCHEM_MOLECULAR_WEIGHT>
186.27126

> <PUBCHEM_OPENEYE_CAN_SMILES>
CC(C)CCC1=CS(=O)(=O)C=C1

> <PUBCHEM_OPENEYE_ISO_SMILES>
CC(C)CCC1=CS(=O)(=O)C=C1

> <PUBCHEM_CACTVS_TPSA>
42.5

> <PUBCHEM_MONOISOTOPIC_WEIGHT>
186.071451

> <PUBCHEM_TOTAL_CHARGE>
0

> <PUBCHEM_HEAVY_ATOM_COUNT>
12

> <PUBCHEM_ATOM_DEF_STEREO_COUNT>
0

> <PUBCHEM_ATOM_UDEF_STEREO_COUNT>
0

> <PUBCHEM_BOND_DEF_STEREO_COUNT>
0

> <PUBCHEM_BOND_UDEF_STEREO_COUNT>
0

> <PUBCHEM_ISOTOPIC_ATOM_COUNT>
0

> <PUBCHEM_COMPONENT_COUNT>
1

> <PUBCHEM_CACTVS_TAUTO_COUNT>
1

> <PUBCHEM_COORDINATE_TYPE>
1
5
255

$$$$

