5680
  -OEChem-06261200482D

 37 38  0     0  0  0  0  0  0999 V2000
    6.8834    4.5773    0.0000 Cl  0  0  0  0  0  0  0  0  0  0  0  0
    5.1350    0.5427    0.0000 S   0  0  0  0  0  0  0  0  0  0  0  0
    4.1350    0.5427    0.0000 O   0  0  0  0  0  0  0  0  0  0  0  0
    6.1350    0.5427    0.0000 O   0  0  0  0  0  0  0  0  0  0  0  0
    5.1350   -0.4573    0.0000 N   0  0  0  0  0  0  0  0  0  0  0  0
    2.5369   -3.9573    0.0000 N   0  0  0  0  0  0  0  0  0  0  0  0
    4.2690   -1.9573    0.0000 C   0  0  0  0  0  0  0  0  0  0  0  0
    4.2690   -0.9573    0.0000 C   0  0  0  0  0  0  0  0  0  0  0  0
    5.1350    1.5427    0.0000 C   0  0  0  0  0  0  0  0  0  0  0  0
    3.4030   -2.4573    0.0000 C   0  0  0  0  0  0  0  0  0  0  0  0
    6.0010    2.0427    0.0000 C   0  0  0  0  0  0  0  0  0  0  0  0
    6.0010    3.0427    0.0000 C   0  0  0  0  0  0  0  0  0  0  0  0
    3.4030   -3.4573    0.0000 C   0  0  0  0  0  0  0  0  0  0  0  0
    4.2690    2.0427    0.0000 C   0  0  0  0  0  0  0  0  0  0  0  0
    6.8950    1.5080    0.0000 C   0  0  0  0  0  0  0  0  0  0  0  0
    5.1350    3.5427    0.0000 C   0  0  0  0  0  0  0  0  0  0  0  0
    4.2690    3.0427    0.0000 C   0  0  0  0  0  0  0  0  0  0  0  0
    6.8950    3.5774    0.0000 C   0  0  0  0  0  0  0  0  0  0  0  0
    7.8010    2.0219    0.0000 C   0  0  0  0  0  0  0  0  0  0  0  0
    7.8010    3.0635    0.0000 C   0  0  0  0  0  0  0  0  0  0  0  0
    4.4810   -2.5399    0.0000 H   0  0  0  0  0  0  0  0  0  0  0  0
    4.8796   -1.8496    0.0000 H   0  0  0  0  0  0  0  0  0  0  0  0
    4.0569   -0.3747    0.0000 H   0  0  0  0  0  0  0  0  0  0  0  0
    3.6584   -1.0650    0.0000 H   0  0  0  0  0  0  0  0  0  0  0  0
    3.1909   -1.8747    0.0000 H   0  0  0  0  0  0  0  0  0  0  0  0
    2.7924   -2.5650    0.0000 H   0  0  0  0  0  0  0  0  0  0  0  0
    5.6720   -0.7673    0.0000 H   0  0  0  0  0  0  0  0  0  0  0  0
    3.6150   -4.0399    0.0000 H   0  0  0  0  0  0  0  0  0  0  0  0
    4.0135   -3.3496    0.0000 H   0  0  0  0  0  0  0  0  0  0  0  0
    3.7320    1.7327    0.0000 H   0  0  0  0  0  0  0  0  0  0  0  0
    6.8878    0.8881    0.0000 H   0  0  0  0  0  0  0  0  0  0  0  0
    5.1350    4.1627    0.0000 H   0  0  0  0  0  0  0  0  0  0  0  0
    3.7320    3.3527    0.0000 H   0  0  0  0  0  0  0  0  0  0  0  0
    8.3368    1.7098    0.0000 H   0  0  0  0  0  0  0  0  0  0  0  0
    8.3368    3.3756    0.0000 H   0  0  0  0  0  0  0  0  0  0  0  0
    2.5369   -4.5773    0.0000 H   0  0  0  0  0  0  0  0  0  0  0  0
    2.0000   -3.6473    0.0000 H   0  0  0  0  0  0  0  0  0  0  0  0
  1 18  1  0  0  0  0
  2  3  2  0  0  0  0
  2  4  2  0  0  0  0
  2  5  1  0  0  0  0
  2  9  1  0  0  0  0
  5  8  1  0  0  0  0
  5 27  1  0  0  0  0
  6 13  1  0  0  0  0
  6 36  1  0  0  0  0
  6 37  1  0  0  0  0
  7  8  1  0  0  0  0
  7 10  1  0  0  0  0
  7 21  1  0  0  0  0
  7 22  1  0  0  0  0
  8 23  1  0  0  0  0
  8 24  1  0  0  0  0
  9 11  1  0  0  0  0
  9 14  2  0  0  0  0
 10 13  1  0  0  0  0
 10 25  1  0  0  0  0
 10 26  1  0  0  0  0
 11 12  2  0  0  0  0
 11 15  1  0  0  0  0
 12 16  1  0  0  0  0
 12 18  1  0  0  0  0
 13 28  1  0  0  0  0
 13 29  1  0  0  0  0
 14 17  1  0  0  0  0
 14 30  1  0  0  0  0
 15 19  2  0  0  0  0
 15 31  1  0  0  0  0
 16 17  2  0  0  0  0
 16 32  1  0  0  0  0
 17 33  1  0  0  0  0
 18 20  2  0  0  0  0
 19 20  1  0  0  0  0
 19 34  1  0  0  0  0
 20 35  1  0  0  0  0
M  END
> <PUBCHEM_COMPOUND_CID>
5680

> <PUBCHEM_COMPOUND_CANONICALIZED>
1

> <PUBCHEM_CACTVS_COMPLEXITY>
397

> <PUBCHEM_CACTVS_HBOND_ACCEPTOR>
4

> <PUBCHEM_CACTVS_HBOND_DONOR>
2

> <PUBCHEM_CACTVS_ROTATABLE_BOND>
6

> <PUBCHEM_CACTVS_SUBSKEYS>
AAADceBzMABEAAAAAAAAAAAAAAAAAAAAAAAwYAAAAAAAAADBUAAAHAYQQAAADALBWCQwAcBAAAKAAiBCAHBCABAgBQAIiJgAAogIICKBkxCAIAAgkAAIiAcAgIAOgAAAoAAVAAAAAAFAACoAAAAAAAAAAA==

> <PUBCHEM_IUPAC_OPENEYE_NAME>
N-(4-aminobutyl)-5-chloro-naphthalene-1-sulfonamide

> <PUBCHEM_IUPAC_CAS_NAME>
N-(4-aminobutyl)-5-chloro-1-naphthalenesulfonamide

> <PUBCHEM_IUPAC_NAME>
N-(4-aminobutyl)-5-chloronaphthalene-1-sulfonamide

> <PUBCHEM_IUPAC_SYSTEMATIC_NAME>
N-(4-azanylbutyl)-5-chloranyl-naphthalene-1-sulfonamide

> <PUBCHEM_IUPAC_TRADITIONAL_NAME>
N-(4-aminobutyl)-5-chloro-naphthalene-1-sulfonamide

> <PUBCHEM_IUPAC_INCHI>
InChI=1S/C14H17ClN2O2S/c15-13-7-3-6-12-11(13)5-4-8-14(12)20(18,19)17-10-2-1-9-16/h3-8,17H,1-2,9-10,16H2

> <PUBCHEM_IUPAC_INCHIKEY>
OZDWAHBMLHXZTI-UHFFFAOYSA-N

> <PUBCHEM_XLOGP3_AA>
2.5

> <PUBCHEM_EXACT_MASS>
312.069926

> <PUBCHEM_MOLECULAR_FORMULA>
C14H17ClN2O2S

> <PUBCHEM_MOLECULAR_WEIGHT>
312.81498

> <PUBCHEM_OPENEYE_CAN_SMILES>
C1=CC2=C(C=CC=C2Cl)C(=C1)S(=O)(=O)NCCCCN

> <PUBCHEM_OPENEYE_ISO_SMILES>
C1=CC2=C(C=CC=C2Cl)C(=C1)S(=O)(=O)NCCCCN

> <PUBCHEM_CACTVS_TPSA>
80.6

> <PUBCHEM_MONOISOTOPIC_WEIGHT>
312.069926

> <PUBCHEM_TOTAL_CHARGE>
0

> <PUBCHEM_HEAVY_ATOM_COUNT>
20

> <PUBCHEM_ATOM_DEF_STEREO_COUNT>
0

> <PUBCHEM_ATOM_UDEF_STEREO_COUNT>
0

> <PUBCHEM_BOND_DEF_STEREO_COUNT>
0

> <PUBCHEM_BOND_UDEF_STEREO_COUNT>
0

> <PUBCHEM_ISOTOPIC_ATOM_COUNT>
0

> <PUBCHEM_COMPONENT_COUNT>
1

> <PUBCHEM_CACTVS_TAUTO_COUNT>
1

> <PUBCHEM_COORDINATE_TYPE>
1
5
255

> <PUBCHEM_BONDANNOTATIONS>
11  12  8
11  15  8
12  16  8
12  18  8
14  17  8
15  19  8
16  17  8
18  20  8
19  20  8
9  11  8
9  14  8

$$$$

