13297
  -OEChem-06261208392D

 31 33  0     0  0  0  0  0  0999 V2000
    2.5369    1.2327    0.0000 O   0  0  0  0  0  0  0  0  0  0  0  0
    4.2690    0.2327    0.0000 N   0  0  0  0  0  0  0  0  0  0  0  0
    3.4030   -0.2673    0.0000 N   0  0  0  0  0  0  0  0  0  0  0  0
    5.1350    1.7327    0.0000 C   0  0  0  0  0  0  0  0  0  0  0  0
    5.1350    2.7327    0.0000 C   0  0  0  0  0  0  0  0  0  0  0  0
    4.2690    1.2327    0.0000 C   0  0  0  0  0  0  0  0  0  0  0  0
    4.2690    3.2327    0.0000 C   0  0  0  0  0  0  0  0  0  0  0  0
    6.0290    1.1980    0.0000 C   0  0  0  0  0  0  0  0  0  0  0  0
    3.4030    1.7327    0.0000 C   0  0  0  0  0  0  0  0  0  0  0  0
    6.0290    3.2673    0.0000 C   0  0  0  0  0  0  0  0  0  0  0  0
    3.4030    2.7327    0.0000 C   0  0  0  0  0  0  0  0  0  0  0  0
    6.9350    1.7119    0.0000 C   0  0  0  0  0  0  0  0  0  0  0  0
    6.9350    2.7535    0.0000 C   0  0  0  0  0  0  0  0  0  0  0  0
    3.4030   -1.2673    0.0000 C   0  0  0  0  0  0  0  0  0  0  0  0
    4.2690   -1.7673    0.0000 C   0  0  0  0  0  0  0  0  0  0  0  0
    2.5369   -1.7673    0.0000 C   0  0  0  0  0  0  0  0  0  0  0  0
    4.2690   -2.7673    0.0000 C   0  0  0  0  0  0  0  0  0  0  0  0
    2.5369   -2.7673    0.0000 C   0  0  0  0  0  0  0  0  0  0  0  0
    3.4030   -3.2673    0.0000 C   0  0  0  0  0  0  0  0  0  0  0  0
    4.2690    3.8527    0.0000 H   0  0  0  0  0  0  0  0  0  0  0  0
    6.0218    0.5780    0.0000 H   0  0  0  0  0  0  0  0  0  0  0  0
    6.0218    3.8873    0.0000 H   0  0  0  0  0  0  0  0  0  0  0  0
    2.8660    3.0427    0.0000 H   0  0  0  0  0  0  0  0  0  0  0  0
    7.4708    1.3998    0.0000 H   0  0  0  0  0  0  0  0  0  0  0  0
    7.4708    3.0656    0.0000 H   0  0  0  0  0  0  0  0  0  0  0  0
    4.8059   -1.4573    0.0000 H   0  0  0  0  0  0  0  0  0  0  0  0
    2.0000   -1.4573    0.0000 H   0  0  0  0  0  0  0  0  0  0  0  0
    2.0000    1.5427    0.0000 H   0  0  0  0  0  0  0  0  0  0  0  0
    4.8059   -3.0773    0.0000 H   0  0  0  0  0  0  0  0  0  0  0  0
    2.0000   -3.0773    0.0000 H   0  0  0  0  0  0  0  0  0  0  0  0
    3.4030   -3.8873    0.0000 H   0  0  0  0  0  0  0  0  0  0  0  0
  1  9  1  0  0  0  0
  1 28  1  0  0  0  0
  2  3  2  0  0  0  0
  2  6  1  0  0  0  0
  3 14  1  0  0  0  0
  4  5  1  0  0  0  0
  4  6  1  0  0  0  0
  4  8  2  0  0  0  0
  5  7  1  0  0  0  0
  5 10  2  0  0  0  0
  6  9  2  0  0  0  0
  7 11  2  0  0  0  0
  7 20  1  0  0  0  0
  8 12  1  0  0  0  0
  8 21  1  0  0  0  0
  9 11  1  0  0  0  0
 10 13  1  0  0  0  0
 10 22  1  0  0  0  0
 11 23  1  0  0  0  0
 12 13  2  0  0  0  0
 12 24  1  0  0  0  0
 13 25  1  0  0  0  0
 14 15  2  0  0  0  0
 14 16  1  0  0  0  0
 15 17  1  0  0  0  0
 15 26  1  0  0  0  0
 16 18  2  0  0  0  0
 16 27  1  0  0  0  0
 17 19  2  0  0  0  0
 17 29  1  0  0  0  0
 18 19  1  0  0  0  0
 18 30  1  0  0  0  0
 19 31  1  0  0  0  0
M  END
> <PUBCHEM_COMPOUND_CID>
13297

> <PUBCHEM_COMPOUND_CANONICALIZED>
1

> <PUBCHEM_CACTVS_COMPLEXITY>
312

> <PUBCHEM_CACTVS_HBOND_ACCEPTOR>
3

> <PUBCHEM_CACTVS_HBOND_DONOR>
1

> <PUBCHEM_CACTVS_ROTATABLE_BOND>
2

> <PUBCHEM_CACTVS_SUBSKEYS>
AAADccB7IAAAAAAAAAAAAAAAAAAAAAAAAAAwYMAAAAAAAADBVAAAHgAICAAADAyBmAAwxsAAAgCCAiRCQACCAAAgIgAIiAAHbIgKJiKSkZOAcABkwBEI2AeQwLAOoAABQAASEABAAAKAACQgAAAAAAAAAA==

> <PUBCHEM_IUPAC_OPENEYE_NAME>
1-phenylazonaphthalen-2-ol

> <PUBCHEM_IUPAC_CAS_NAME>
1-phenyldiazenyl-2-naphthalenol

> <PUBCHEM_IUPAC_NAME>
1-phenyldiazenylnaphthalen-2-ol

> <PUBCHEM_IUPAC_SYSTEMATIC_NAME>
1-phenyldiazenylnaphthalen-2-ol

> <PUBCHEM_IUPAC_TRADITIONAL_NAME>
1-phenylazo-2-naphthol

> <PUBCHEM_IUPAC_INCHI>
InChI=1S/C16H12N2O/c19-15-11-10-12-6-4-5-9-14(12)16(15)18-17-13-7-2-1-3-8-13/h1-11,19H

> <PUBCHEM_IUPAC_INCHIKEY>
MRQIXHXHHPWVIL-UHFFFAOYSA-N

> <PUBCHEM_XLOGP3>
4.1

> <PUBCHEM_EXACT_MASS>
248.094963

> <PUBCHEM_MOLECULAR_FORMULA>
C16H12N2O

> <PUBCHEM_MOLECULAR_WEIGHT>
248.27928

> <PUBCHEM_OPENEYE_CAN_SMILES>
C1=CC=C(C=C1)N=NC2=C(C=CC3=CC=CC=C32)O

> <PUBCHEM_OPENEYE_ISO_SMILES>
C1=CC=C(C=C1)N=NC2=C(C=CC3=CC=CC=C32)O

> <PUBCHEM_CACTVS_TPSA>
45

> <PUBCHEM_MONOISOTOPIC_WEIGHT>
248.094963

> <PUBCHEM_TOTAL_CHARGE>
0

> <PUBCHEM_HEAVY_ATOM_COUNT>
19

> <PUBCHEM_ATOM_DEF_STEREO_COUNT>
0

> <PUBCHEM_ATOM_UDEF_STEREO_COUNT>
0

> <PUBCHEM_BOND_DEF_STEREO_COUNT>
0

> <PUBCHEM_BOND_UDEF_STEREO_COUNT>
0

> <PUBCHEM_ISOTOPIC_ATOM_COUNT>
0

> <PUBCHEM_COMPONENT_COUNT>
1

> <PUBCHEM_CACTVS_TAUTO_COUNT>
3

> <PUBCHEM_COORDINATE_TYPE>
1
5
255

> <PUBCHEM_BONDANNOTATIONS>
10  13  8
12  13  8
14  15  8
14  16  8
15  17  8
16  18  8
17  19  8
18  19  8
4  5  8
4  6  8
4  8  8
5  10  8
5  7  8
6  9  8
7  11  8
8  12  8
9  11  8

$$$$

