3730
  -OEChem-06251223372D

 60 60  0     1  0  0  0  0  0999 V2000
    4.2690    1.0000    0.0000 I   0  0  0  0  0  0  0  0  0  0  0  0
    7.7331    1.0000    0.0000 I   0  0  0  0  0  0  0  0  0  0  0  0
    6.0010   -2.0000    0.0000 I   0  0  0  0  0  0  0  0  0  0  0  0
    6.0010    4.0000    0.0000 O   0  0  0  0  0  0  0  0  0  0  0  0
    7.7331    5.0000    0.0000 O   0  0  0  0  0  0  0  0  0  0  0  0
    4.2690    2.0000    0.0000 O   0  0  0  0  0  0  0  0  0  0  0  0
    7.7331   -4.0000    0.0000 O   0  0  0  0  0  0  0  0  0  0  0  0
    4.2690   -4.0000    0.0000 O   0  0  0  0  0  0  0  0  0  0  0  0
    8.5991   -0.5000    0.0000 O   0  0  0  0  0  0  0  0  0  0  0  0
    3.4030   -0.5000    0.0000 O   0  0  0  0  0  0  0  0  0  0  0  0
    9.4651   -5.0000    0.0000 O   0  0  0  0  0  0  0  0  0  0  0  0
    2.5369   -5.0000    0.0000 O   0  0  0  0  0  0  0  0  0  0  0  0
    6.0010    2.0000    0.0000 N   0  0  0  0  0  0  0  0  0  0  0  0
    7.7331   -2.0000    0.0000 N   0  0  0  0  0  0  0  0  0  0  0  0
    4.2690   -2.0000    0.0000 N   0  0  0  0  0  0  0  0  0  0  0  0
    6.8671    2.5000    0.0000 C   0  0  0  0  0  0  0  0  0  0  0  0
    6.0010    1.0000    0.0000 C   0  0  0  0  0  0  0  0  0  0  0  0
    6.8671    3.5000    0.0000 C   0  0  3  0  0  0  0  0  0  0  0  0
    5.1350    0.5000    0.0000 C   0  0  0  0  0  0  0  0  0  0  0  0
    6.8671    0.5000    0.0000 C   0  0  0  0  0  0  0  0  0  0  0  0
    5.1350   -0.5000    0.0000 C   0  0  0  0  0  0  0  0  0  0  0  0
    6.8671   -0.5000    0.0000 C   0  0  0  0  0  0  0  0  0  0  0  0
    6.0010   -1.0000    0.0000 C   0  0  0  0  0  0  0  0  0  0  0  0
    7.7331    4.0000    0.0000 C   0  0  0  0  0  0  0  0  0  0  0  0
    5.1350    2.5000    0.0000 C   0  0  0  0  0  0  0  0  0  0  0  0
    7.7331   -1.0000    0.0000 C   0  0  0  0  0  0  0  0  0  0  0  0
    4.2690   -1.0000    0.0000 C   0  0  0  0  0  0  0  0  0  0  0  0
    8.5991   -2.5000    0.0000 C   0  0  0  0  0  0  0  0  0  0  0  0
    3.4030   -2.5000    0.0000 C   0  0  0  0  0  0  0  0  0  0  0  0
    8.5991   -3.5000    0.0000 C   0  0  3  0  0  0  0  0  0  0  0  0
    3.4030   -3.5000    0.0000 C   0  0  3  0  0  0  0  0  0  0  0  0
    5.1350    3.5000    0.0000 C   0  0  0  0  0  0  0  0  0  0  0  0
    9.4651   -4.0000    0.0000 C   0  0  0  0  0  0  0  0  0  0  0  0
    2.5369   -4.0000    0.0000 C   0  0  0  0  0  0  0  0  0  0  0  0
    7.0791    1.9174    0.0000 H   0  0  0  0  0  0  0  0  0  0  0  0
    7.4776    2.6077    0.0000 H   0  0  0  0  0  0  0  0  0  0  0  0
    6.3301    3.1900    0.0000 H   0  0  0  0  0  0  0  0  0  0  0  0
    7.9451    3.4174    0.0000 H   0  0  0  0  0  0  0  0  0  0  0  0
    8.3437    4.1077    0.0000 H   0  0  0  0  0  0  0  0  0  0  0  0
    9.2097   -2.6077    0.0000 H   0  0  0  0  0  0  0  0  0  0  0  0
    8.8112   -1.9174    0.0000 H   0  0  0  0  0  0  0  0  0  0  0  0
    3.1909   -1.9174    0.0000 H   0  0  0  0  0  0  0  0  0  0  0  0
    2.7924   -2.6077    0.0000 H   0  0  0  0  0  0  0  0  0  0  0  0
    8.5991   -4.1200    0.0000 H   0  0  0  0  0  0  0  0  0  0  0  0
    3.4030   -4.1200    0.0000 H   0  0  0  0  0  0  0  0  0  0  0  0
    7.1962   -2.3100    0.0000 H   0  0  0  0  0  0  0  0  0  0  0  0
    4.8059   -2.3100    0.0000 H   0  0  0  0  0  0  0  0  0  0  0  0
    5.7550    3.5000    0.0000 H   0  0  0  0  0  0  0  0  0  0  0  0
    5.1350    4.1200    0.0000 H   0  0  0  0  0  0  0  0  0  0  0  0
    4.5150    3.5000    0.0000 H   0  0  0  0  0  0  0  0  0  0  0  0
    6.0010    4.6200    0.0000 H   0  0  0  0  0  0  0  0  0  0  0  0
   10.0757   -4.1077    0.0000 H   0  0  0  0  0  0  0  0  0  0  0  0
    9.6772   -3.4174    0.0000 H   0  0  0  0  0  0  0  0  0  0  0  0
    2.3249   -3.4174    0.0000 H   0  0  0  0  0  0  0  0  0  0  0  0
    1.9264   -4.1077    0.0000 H   0  0  0  0  0  0  0  0  0  0  0  0
    8.2700    5.3100    0.0000 H   0  0  0  0  0  0  0  0  0  0  0  0
    7.7331   -4.6200    0.0000 H   0  0  0  0  0  0  0  0  0  0  0  0
    4.2690   -4.6200    0.0000 H   0  0  0  0  0  0  0  0  0  0  0  0
   10.0021   -5.3100    0.0000 H   0  0  0  0  0  0  0  0  0  0  0  0
    2.0000   -5.3100    0.0000 H   0  0  0  0  0  0  0  0  0  0  0  0
  1 19  1  0  0  0  0
  2 20  1  0  0  0  0
  3 23  1  0  0  0  0
  4 18  1  0  0  0  0
  4 51  1  0  0  0  0
  5 24  1  0  0  0  0
  5 56  1  0  0  0  0
  6 25  2  0  0  0  0
  7 30  1  0  0  0  0
  7 57  1  0  0  0  0
  8 31  1  0  0  0  0
  8 58  1  0  0  0  0
  9 26  2  0  0  0  0
 10 27  2  0  0  0  0
 11 33  1  0  0  0  0
 11 59  1  0  0  0  0
 12 34  1  0  0  0  0
 12 60  1  0  0  0  0
 13 16  1  0  0  0  0
 13 17  1  0  0  0  0
 13 25  1  0  0  0  0
 14 26  1  0  0  0  0
 14 28  1  0  0  0  0
 14 46  1  0  0  0  0
 15 27  1  0  0  0  0
 15 29  1  0  0  0  0
 15 47  1  0  0  0  0
 16 18  1  0  0  0  0
 16 35  1  0  0  0  0
 16 36  1  0  0  0  0
 17 19  2  0  0  0  0
 17 20  1  0  0  0  0
 18 24  1  0  0  0  0
 18 37  1  0  0  0  0
 19 21  1  0  0  0  0
 20 22  2  0  0  0  0
 21 23  2  0  0  0  0
 21 27  1  0  0  0  0
 22 23  1  0  0  0  0
 22 26  1  0  0  0  0
 24 38  1  0  0  0  0
 24 39  1  0  0  0  0
 25 32  1  0  0  0  0
 28 30  1  0  0  0  0
 28 40  1  0  0  0  0
 28 41  1  0  0  0  0
 29 31  1  0  0  0  0
 29 42  1  0  0  0  0
 29 43  1  0  0  0  0
 30 33  1  0  0  0  0
 30 44  1  0  0  0  0
 31 34  1  0  0  0  0
 31 45  1  0  0  0  0
 32 48  1  0  0  0  0
 32 49  1  0  0  0  0
 32 50  1  0  0  0  0
 33 52  1  0  0  0  0
 33 53  1  0  0  0  0
 34 54  1  0  0  0  0
 34 55  1  0  0  0  0
M  END
> <PUBCHEM_COMPOUND_CID>
3730

> <PUBCHEM_COMPOUND_CANONICALIZED>
1

> <PUBCHEM_CACTVS_COMPLEXITY>
653

> <PUBCHEM_CACTVS_HBOND_ACCEPTOR>
9

> <PUBCHEM_CACTVS_HBOND_DONOR>
8

> <PUBCHEM_CACTVS_ROTATABLE_BOND>
12

> <PUBCHEM_CACTVS_SUBSKEYS>
AAADceB7PAAAAwAAAAAAAAAAAAAAAAAAAAAwAAAAAAAAAAABAAAAHgAwCAAADBzjmAYCwIPAAgCIAgVQUACCAAAlAAAAiIEIRMgLMDLAlJGEYQhilgDZyQcci0COAAACQAAAAAAAAASAAAAAAAAAAAAAAA==

> <PUBCHEM_IUPAC_OPENEYE_NAME>
5-[acetyl(2,3-dihydroxypropyl)amino]-N1,N3-bis(2,3-dihydroxypropyl)-2,4,6-triiodo-benzene-1,3-dicarboxamide

> <PUBCHEM_IUPAC_CAS_NAME>
5-[acetyl(2,3-dihydroxypropyl)amino]-N1,N3-bis(2,3-dihydroxypropyl)-2,4,6-triiodobenzene-1,3-dicarboxamide

> <PUBCHEM_IUPAC_NAME>
5-[acetyl(2,3-dihydroxypropyl)amino]-1-N,3-N-bis(2,3-dihydroxypropyl)-2,4,6-triiodobenzene-1,3-dicarboxamide

> <PUBCHEM_IUPAC_SYSTEMATIC_NAME>
N1,N3-bis[2,3-bis(oxidanyl)propyl]-5-[2,3-bis(oxidanyl)propyl-ethanoyl-amino]-2,4,6-tris(iodanyl)benzene-1,3-dicarboxamide

> <PUBCHEM_IUPAC_TRADITIONAL_NAME>
5-[acetyl(glyceryl)amino]-N,N'-diglyceryl-2,4,6-triiodo-isophthalamide

> <PUBCHEM_IUPAC_INCHI>
InChI=1S/C19H26I3N3O9/c1-8(29)25(4-11(32)7-28)17-15(21)12(18(33)23-2-9(30)5-26)14(20)13(16(17)22)19(34)24-3-10(31)6-27/h9-11,26-28,30-32H,2-7H2,1H3,(H,23,33)(H,24,34)

> <PUBCHEM_IUPAC_INCHIKEY>
NTHXOOBQLCIOLC-UHFFFAOYSA-N

> <PUBCHEM_XLOGP3>
-3

> <PUBCHEM_EXACT_MASS>
820.880323

> <PUBCHEM_MOLECULAR_FORMULA>
C19H26I3N3O9

> <PUBCHEM_MOLECULAR_WEIGHT>
821.13785

> <PUBCHEM_OPENEYE_CAN_SMILES>
CC(=O)N(CC(CO)O)C1=C(C(=C(C(=C1I)C(=O)NCC(CO)O)I)C(=O)NCC(CO)O)I

> <PUBCHEM_OPENEYE_ISO_SMILES>
CC(=O)N(CC(CO)O)C1=C(C(=C(C(=C1I)C(=O)NCC(CO)O)I)C(=O)NCC(CO)O)I

> <PUBCHEM_CACTVS_TPSA>
200

> <PUBCHEM_MONOISOTOPIC_WEIGHT>
820.880323

> <PUBCHEM_TOTAL_CHARGE>
0

> <PUBCHEM_HEAVY_ATOM_COUNT>
34

> <PUBCHEM_ATOM_DEF_STEREO_COUNT>
0

> <PUBCHEM_ATOM_UDEF_STEREO_COUNT>
3

> <PUBCHEM_BOND_DEF_STEREO_COUNT>
0

> <PUBCHEM_BOND_UDEF_STEREO_COUNT>
0

> <PUBCHEM_ISOTOPIC_ATOM_COUNT>
0

> <PUBCHEM_COMPONENT_COUNT>
1

> <PUBCHEM_CACTVS_TAUTO_COUNT>
3

> <PUBCHEM_COORDINATE_TYPE>
1
5
255

> <PUBCHEM_BONDANNOTATIONS>
17  19  8
17  20  8
19  21  8
20  22  8
21  23  8
22  23  8
18  4  3
30  7  3
31  8  3

$$$$

