11856
  -OEChem-06261206123D

 12 12  0     0  0  0  0  0  0999 V2000
    0.0002    3.2903    0.0004 I   0  0  0  0  0  0  0  0  0  0  0  0
    3.1170    1.4391   -0.0006 I   0  0  0  0  0  0  0  0  0  0  0  0
   -3.1168    1.4395   -0.0003 I   0  0  0  0  0  0  0  0  0  0  0  0
   -2.9169   -2.2363   -0.0002 I   0  0  0  0  0  0  0  0  0  0  0  0
    2.9166   -2.2367    0.0001 I   0  0  0  0  0  0  0  0  0  0  0  0
    0.0001    1.1123    0.0001 C   0  0  0  0  0  0  0  0  0  0  0  0
    1.2082    0.4148    0.0001 C   0  0  0  0  0  0  0  0  0  0  0  0
   -1.2079    0.4148    0.0000 C   0  0  0  0  0  0  0  0  0  0  0  0
   -1.2081   -0.9801    0.0001 C   0  0  0  0  0  0  0  0  0  0  0  0
    1.2079   -0.9802    0.0001 C   0  0  0  0  0  0  0  0  0  0  0  0
   -0.0002   -1.6775    0.0001 C   0  0  0  0  0  0  0  0  0  0  0  0
   -0.0002   -2.7659    0.0002 H   0  0  0  0  0  0  0  0  0  0  0  0
  1  6  1  0  0  0  0
  2  7  1  0  0  0  0
  3  8  1  0  0  0  0
  4  9  1  0  0  0  0
  5 10  1  0  0  0  0
  6  7  2  0  0  0  0
  6  8  1  0  0  0  0
  7 10  1  0  0  0  0
  8  9  2  0  0  0  0
  9 11  1  0  0  0  0
 10 11  2  0  0  0  0
 11 12  1  0  0  0  0
M  END
> <PUBCHEM_COMPOUND_CID>
11856

> <PUBCHEM_CONFORMER_RMSD>
0.4

> <PUBCHEM_CONFORMER_DIVERSEORDER>
1

> <PUBCHEM_MMFF94_PARTIAL_CHARGES>
12
1 -0.08
10 0.08
11 -0.15
12 0.15
2 -0.08
3 -0.08
4 -0.08
5 -0.08
6 0.08
7 0.08
8 0.08
9 0.08

> <PUBCHEM_EFFECTIVE_ROTOR_COUNT>
0

> <PUBCHEM_PHARMACOPHORE_FEATURES>
6
1 1 hydrophobe
1 2 hydrophobe
1 3 hydrophobe
1 4 hydrophobe
1 5 hydrophobe
6 6 7 8 9 10 11 rings

> <PUBCHEM_HEAVY_ATOM_COUNT>
11

> <PUBCHEM_ATOM_DEF_STEREO_COUNT>
0

> <PUBCHEM_ATOM_UDEF_STEREO_COUNT>
0

> <PUBCHEM_BOND_DEF_STEREO_COUNT>
0

> <PUBCHEM_BOND_UDEF_STEREO_COUNT>
0

> <PUBCHEM_ISOTOPIC_ATOM_COUNT>
0

> <PUBCHEM_COMPONENT_COUNT>
1

> <PUBCHEM_CACTVS_TAUTO_COUNT>
1

> <PUBCHEM_CONFORMER_ID>
00002E5000000001

> <PUBCHEM_MMFF94_ENERGY>
44.5421

> <PUBCHEM_FEATURE_SELFOVERLAP>
30.446

> <PUBCHEM_SHAPE_FINGERPRINT>
10967382 1 18410856594042018277
11680986 33 18410012156205619218
12423570 1 16115398742909662508
13140716 1 18411419556838169842
13380535 21 18410568491888351012
16945 1 18409451358010032373
193761 8 18410573989446554854
20510252 161 18045497513148473536
20645477 70 17764037869866949695
20711985 365 18123470737446914572
21501502 16 18410576184174979522
2334 1 18410573959381874726
23402539 116 18118129060929930870
23526114 1 18410011026729700454
23552423 10 18342737420890810222
23559900 14 18263365966263939894
241688 4 18411138073271316698
2748010 2 18409166610273296182
53812653 166 18334577893245005096
54173680 148 18339078310533724107
7364860 26 18121217584602174702

> <PUBCHEM_SHAPE_MULTIPOLES>
286.05
5.3
4.03
0.74
0
1.22
0
-1.55
0
0
0
0
0.03
0

> <PUBCHEM_SHAPE_SELFOVERLAP>
480.02

> <PUBCHEM_SHAPE_VOLUME>
206.7

> <PUBCHEM_COORDINATE_TYPE>
2
5
10

$$$$

