854325
  -OEChem-06241222473D

 33 35  0     0  0  0  0  0  0999 V2000
   -5.5758    1.0591   -0.0435 Cl  0  0  0  0  0  0  0  0  0  0  0  0
    2.7266   -3.4948    0.0222 S   0  0  0  0  0  0  0  0  0  0  0  0
    2.9650   -0.8688    0.0019 N   0  0  0  0  0  0  0  0  0  0  0  0
   -1.1323   -3.4880   -0.0123 N   0  0  0  0  0  0  0  0  0  0  0  0
    0.8440    2.2343    0.0570 C   0  0  0  0  0  0  0  0  0  0  0  0
    1.9723    3.2195    0.3760 C   0  0  0  0  0  0  0  0  0  0  0  0
    1.2830    0.7856    0.0257 C   0  0  0  0  0  0  0  0  0  0  0  0
    3.2411    2.8650   -0.3858 C   0  0  0  0  0  0  0  0  0  0  0  0
    3.7080    1.4551   -0.0278 C   0  0  0  0  0  0  0  0  0  0  0  0
    2.5869    0.4514    0.0051 C   0  0  0  0  0  0  0  0  0  0  0  0
    0.2583   -0.2723    0.0191 C   0  0  0  0  0  0  0  0  0  0  0  0
    0.6217   -1.5800    0.0137 C   0  0  0  0  0  0  0  0  0  0  0  0
   -1.1904    0.0588    0.0039 C   0  0  0  0  0  0  0  0  0  0  0  0
    2.0896   -1.9340    0.0139 C   0  0  0  0  0  0  0  0  0  0  0  0
   -1.8733    0.2025    1.2044 C   0  0  0  0  0  0  0  0  0  0  0  0
   -1.8432    0.2200   -1.2113 C   0  0  0  0  0  0  0  0  0  0  0  0
   -0.3473   -2.6340   -0.0006 C   0  0  0  0  0  0  0  0  0  0  0  0
   -3.2331    0.5128    1.1897 C   0  0  0  0  0  0  0  0  0  0  0  0
   -3.2031    0.5306   -1.2260 C   0  0  0  0  0  0  0  0  0  0  0  0
   -3.8981    0.6772   -0.0254 C   0  0  0  0  0  0  0  0  0  0  0  0
    0.4158    2.4905   -0.9205 H   0  0  0  0  0  0  0  0  0  0  0  0
    0.0594    2.3871    0.8069 H   0  0  0  0  0  0  0  0  0  0  0  0
    1.6537    4.2376    0.1253 H   0  0  0  0  0  0  0  0  0  0  0  0
    2.1777    3.2067    1.4541 H   0  0  0  0  0  0  0  0  0  0  0  0
    4.0336    3.5862   -0.1568 H   0  0  0  0  0  0  0  0  0  0  0  0
    3.0515    2.9300   -1.4648 H   0  0  0  0  0  0  0  0  0  0  0  0
    4.1908    1.4707    0.9577 H   0  0  0  0  0  0  0  0  0  0  0  0
    4.4710    1.1486   -0.7538 H   0  0  0  0  0  0  0  0  0  0  0  0
    3.9608   -1.0716   -0.0069 H   0  0  0  0  0  0  0  0  0  0  0  0
   -1.3672    0.0783    2.1583 H   0  0  0  0  0  0  0  0  0  0  0  0
   -1.3134    0.1097   -2.1540 H   0  0  0  0  0  0  0  0  0  0  0  0
   -3.7618    0.6239    2.1329 H   0  0  0  0  0  0  0  0  0  0  0  0
   -3.7081    0.6557   -2.1805 H   0  0  0  0  0  0  0  0  0  0  0  0
  1 20  1  0  0  0  0
  2 14  2  0  0  0  0
  3 10  1  0  0  0  0
  3 14  1  0  0  0  0
  3 29  1  0  0  0  0
  4 17  3  0  0  0  0
  5  6  1  0  0  0  0
  5  7  1  0  0  0  0
  5 21  1  0  0  0  0
  5 22  1  0  0  0  0
  6  8  1  0  0  0  0
  6 23  1  0  0  0  0
  6 24  1  0  0  0  0
  7 10  2  0  0  0  0
  7 11  1  0  0  0  0
  8  9  1  0  0  0  0
  8 25  1  0  0  0  0
  8 26  1  0  0  0  0
  9 10  1  0  0  0  0
  9 27  1  0  0  0  0
  9 28  1  0  0  0  0
 11 12  2  0  0  0  0
 11 13  1  0  0  0  0
 12 14  1  0  0  0  0
 12 17  1  0  0  0  0
 13 15  2  0  0  0  0
 13 16  1  0  0  0  0
 15 18  1  0  0  0  0
 15 30  1  0  0  0  0
 16 19  2  0  0  0  0
 16 31  1  0  0  0  0
 18 20  2  0  0  0  0
 18 32  1  0  0  0  0
 19 20  1  0  0  0  0
 19 33  1  0  0  0  0
M  END
> <PUBCHEM_COMPOUND_CID>
854325

> <PUBCHEM_CONFORMER_RMSD>
0.6

> <PUBCHEM_CONFORMER_DIVERSEORDER>
1

> <PUBCHEM_MMFF94_PARTIAL_CHARGES>
23
1 -0.18
10 -0.03
11 -0.03
12 0.08
13 0.03
14 0.43
15 -0.15
16 -0.15
17 0.49
18 -0.15
19 -0.15
2 -0.38
20 0.18
29 0.37
3 -0.54
30 0.15
31 0.15
32 0.15
33 0.15
4 -0.56
5 0.14
7 -0.14
9 0.14

> <PUBCHEM_EFFECTIVE_ROTOR_COUNT>
1.8

> <PUBCHEM_PHARMACOPHORE_FEATURES>
5
1 2 acceptor
1 4 acceptor
6 13 15 16 18 19 20 rings
6 3 7 10 11 12 14 rings
6 5 6 7 8 9 10 rings

> <PUBCHEM_HEAVY_ATOM_COUNT>
20

> <PUBCHEM_ATOM_DEF_STEREO_COUNT>
0

> <PUBCHEM_ATOM_UDEF_STEREO_COUNT>
0

> <PUBCHEM_BOND_DEF_STEREO_COUNT>
0

> <PUBCHEM_BOND_UDEF_STEREO_COUNT>
0

> <PUBCHEM_ISOTOPIC_ATOM_COUNT>
0

> <PUBCHEM_COMPONENT_COUNT>
1

> <PUBCHEM_CACTVS_TAUTO_COUNT>
2

> <PUBCHEM_CONFORMER_ID>
000D093500000001

> <PUBCHEM_MMFF94_ENERGY>
45.409

> <PUBCHEM_FEATURE_SELFOVERLAP>
25.392

> <PUBCHEM_SHAPE_FINGERPRINT>
10165383 225 18270670978998973260
10411042 1 17906452486779174058
10693767 8 18041839635847935062
10967382 1 18410574015664602130
1100329 8 18411704296502020562
11471102 20 18411136960911937309
11582403 64 16625233158119875517
11725454 13 16914013315834245103
12173636 292 17977387127046366988
12236239 1 17676492795388720361
12390115 104 17977649919437975460
12403259 226 18128820931126341055
12507560 14 18265618869045248802
12553582 1 18192709175471966350
12730499 353 18341043052340215633
13009979 54 17605269790489637259
13134695 92 18268713994350921182
13140716 1 18338241440899023784
138480 1 18194682802885148550
14178342 30 18263938635289924442
14787075 74 17970625178587085251
14790565 3 18338503245068703228
15342168 16 18341890741166314165
16945 1 18410856564414830772
1813 80 17754165702652825942
18186145 218 18335137596218728013
18219364 16 18268421356743944568
19591789 44 18122899837830749246
19930381 70 18411983580981664817
20510252 161 17542785309350680048
20645477 70 18341898549432214423
20739085 24 18122605408984819296
21041028 32 18049161364975075460
21639500 275 18410583885198950029
2255824 54 18335983172189701575
23175994 123 18053377979267110007
2334 1 17978511936616734220
23419403 2 17699247166771160186
23558518 356 17911804565827449986
23559900 14 18339364179583524395
23598291 2 18041857223849261829
238 59 17910998821209113429
25 1 18411421674468133996
2748010 2 18122900937463404060
283562 15 17690556812066543010
3060560 45 18337111266977703031
3091708 16 9257429959819067154
3286 77 18128251379866214583
335352 9 18410855456587633892
350125 39 17979067185409113216
3886686 26 17541699052725794712
4340502 62 18337383856384353411
474 4 18408041788535367017
495365 180 18339655498583326121
633830 44 18041825312189653949
6443956 14 18050846916347747141
7364860 26 18410855507388639308
7471813 234 18043265728035218577
77492 1 17676492791077909321
81228 2 17188976718212739376
8272917 22 18335697308357586717
84936 182 18186809045215486137
9981440 41 17975149651154115400

> <PUBCHEM_SHAPE_MULTIPOLES>
407.35
7.53
3.96
0.92
8.27
1.7
-0.01
-3.1
-0.22
-4.83
0.05
0.71
-0.12
-0.06

> <PUBCHEM_SHAPE_SELFOVERLAP>
866.039

> <PUBCHEM_SHAPE_VOLUME>
229.4

> <PUBCHEM_COORDINATE_TYPE>
2
5
10

$$$$

