854339
  -OEChem-06241222483D

 44 45  0     1  0  0  0  0  0999 V2000
    2.2967    0.5057   -1.4251 O   0  0  0  0  0  0  0  0  0  0  0  0
   -0.9441    0.0009    2.4832 O   0  0  0  0  0  0  0  0  0  0  0  0
   -0.6834    0.7984   -2.0734 O   0  0  0  0  0  0  0  0  0  0  0  0
   -0.4187    0.5807    0.2603 N   0  0  0  0  0  0  0  0  0  0  0  0
    2.3375   -0.7757    0.5097 N   0  0  0  0  0  0  0  0  0  0  0  0
    0.8879    1.1615    0.4380 C   0  0  2  0  0  0  0  0  0  0  0  0
    0.9671    2.6324   -0.0230 C   0  0  0  0  0  0  0  0  0  0  0  0
    3.3259   -1.7345    0.0726 C   0  0  0  0  0  0  0  0  0  0  0  0
    1.9009    0.2754   -0.2841 C   0  0  0  0  0  0  0  0  0  0  0  0
   -0.0634    3.5346    0.6642 C   0  0  0  0  0  0  0  0  0  0  0  0
    2.3749    3.1991    0.1853 C   0  0  0  0  0  0  0  0  0  0  0  0
   -1.1861    0.0707    1.2926 C   0  0  0  0  0  0  0  0  0  0  0  0
   -1.0551    0.4665   -0.9631 C   0  0  0  0  0  0  0  0  0  0  0  0
   -2.4254   -0.4020    0.6769 C   0  0  0  0  0  0  0  0  0  0  0  0
   -2.3462   -0.1627   -0.6871 C   0  0  0  0  0  0  0  0  0  0  0  0
    3.6023   -2.7295    1.2056 C   0  0  0  0  0  0  0  0  0  0  0  0
    2.7915   -2.4808   -1.1543 C   0  0  0  0  0  0  0  0  0  0  0  0
    4.6203   -0.9979   -0.2911 C   0  0  0  0  0  0  0  0  0  0  0  0
   -3.5317   -0.9932    1.2515 C   0  0  0  0  0  0  0  0  0  0  0  0
   -3.3692   -0.5021   -1.5484 C   0  0  0  0  0  0  0  0  0  0  0  0
   -4.5812   -1.3452    0.3980 C   0  0  0  0  0  0  0  0  0  0  0  0
   -4.5007   -1.1023   -0.9884 C   0  0  0  0  0  0  0  0  0  0  0  0
    1.1259    1.1409    1.5103 H   0  0  0  0  0  0  0  0  0  0  0  0
    0.7666    2.6877   -1.1006 H   0  0  0  0  0  0  0  0  0  0  0  0
    1.9330   -0.8909    1.4347 H   0  0  0  0  0  0  0  0  0  0  0  0
   -1.0859    3.2156    0.4393 H   0  0  0  0  0  0  0  0  0  0  0  0
    0.0661    3.5209    1.7517 H   0  0  0  0  0  0  0  0  0  0  0  0
    0.0376    4.5710    0.3243 H   0  0  0  0  0  0  0  0  0  0  0  0
    3.1301    2.6687   -0.4011 H   0  0  0  0  0  0  0  0  0  0  0  0
    2.4159    4.2508   -0.1198 H   0  0  0  0  0  0  0  0  0  0  0  0
    2.6669    3.1471    1.2399 H   0  0  0  0  0  0  0  0  0  0  0  0
    2.6892   -3.2633    1.4942 H   0  0  0  0  0  0  0  0  0  0  0  0
    4.3483   -3.4755    0.9102 H   0  0  0  0  0  0  0  0  0  0  0  0
    3.9750   -2.2165    2.1000 H   0  0  0  0  0  0  0  0  0  0  0  0
    2.6617   -1.8339   -2.0271 H   0  0  0  0  0  0  0  0  0  0  0  0
    1.8193   -2.9417   -0.9424 H   0  0  0  0  0  0  0  0  0  0  0  0
    3.4791   -3.2809   -1.4525 H   0  0  0  0  0  0  0  0  0  0  0  0
    4.9592   -0.3635    0.5364 H   0  0  0  0  0  0  0  0  0  0  0  0
    5.4234   -1.7116   -0.5103 H   0  0  0  0  0  0  0  0  0  0  0  0
    4.5213   -0.3598   -1.1740 H   0  0  0  0  0  0  0  0  0  0  0  0
   -3.5937   -1.1806    2.3170 H   0  0  0  0  0  0  0  0  0  0  0  0
   -3.3076   -0.3158   -2.6141 H   0  0  0  0  0  0  0  0  0  0  0  0
   -5.4729   -1.8135    0.8067 H   0  0  0  0  0  0  0  0  0  0  0  0
   -5.3315   -1.3866   -1.6290 H   0  0  0  0  0  0  0  0  0  0  0  0
  1  9  2  0  0  0  0
  2 12  2  0  0  0  0
  3 13  2  0  0  0  0
  4  6  1  0  0  0  0
  4 12  1  0  0  0  0
  4 13  1  0  0  0  0
  5  8  1  0  0  0  0
  5  9  1  0  0  0  0
  5 25  1  0  0  0  0
  6  7  1  0  0  0  0
  6  9  1  0  0  0  0
  6 23  1  0  0  0  0
  7 10  1  0  0  0  0
  7 11  1  0  0  0  0
  7 24  1  0  0  0  0
  8 16  1  0  0  0  0
  8 17  1  0  0  0  0
  8 18  1  0  0  0  0
 10 26  1  0  0  0  0
 10 27  1  0  0  0  0
 10 28  1  0  0  0  0
 11 29  1  0  0  0  0
 11 30  1  0  0  0  0
 11 31  1  0  0  0  0
 12 14  1  0  0  0  0
 13 15  1  0  0  0  0
 14 15  1  0  0  0  0
 14 19  2  0  0  0  0
 15 20  2  0  0  0  0
 16 32  1  0  0  0  0
 16 33  1  0  0  0  0
 16 34  1  0  0  0  0
 17 35  1  0  0  0  0
 17 36  1  0  0  0  0
 17 37  1  0  0  0  0
 18 38  1  0  0  0  0
 18 39  1  0  0  0  0
 18 40  1  0  0  0  0
 19 21  1  0  0  0  0
 19 41  1  0  0  0  0
 20 22  1  0  0  0  0
 20 42  1  0  0  0  0
 21 22  2  0  0  0  0
 21 43  1  0  0  0  0
 22 44  1  0  0  0  0
M  END
> <PUBCHEM_COMPOUND_CID>
854339

> <PUBCHEM_CONFORMER_RMSD>
0.8

> <PUBCHEM_CONFORMER_DIVERSEORDER>
1
7
2
4
6
5
3

> <PUBCHEM_MMFF94_PARTIAL_CHARGES>
21
1 -0.57
12 0.54
13 0.54
14 0.09
15 0.09
19 -0.15
2 -0.57
20 -0.15
21 -0.15
22 -0.15
25 0.37
3 -0.57
4 -0.42
41 0.15
42 0.15
43 0.15
44 0.15
5 -0.73
6 0.36
8 0.3
9 0.57

> <PUBCHEM_EFFECTIVE_ROTOR_COUNT>
5.2

> <PUBCHEM_PHARMACOPHORE_FEATURES>
8
1 1 acceptor
1 2 acceptor
1 3 acceptor
1 5 donor
3 7 10 11 hydrophobe
4 8 16 17 18 hydrophobe
5 4 12 13 14 15 rings
6 14 15 19 20 21 22 rings

> <PUBCHEM_HEAVY_ATOM_COUNT>
22

> <PUBCHEM_ATOM_DEF_STEREO_COUNT>
1

> <PUBCHEM_ATOM_UDEF_STEREO_COUNT>
0

> <PUBCHEM_BOND_DEF_STEREO_COUNT>
0

> <PUBCHEM_BOND_UDEF_STEREO_COUNT>
0

> <PUBCHEM_ISOTOPIC_ATOM_COUNT>
0

> <PUBCHEM_COMPONENT_COUNT>
1

> <PUBCHEM_CACTVS_TAUTO_COUNT>
2

> <PUBCHEM_CONFORMER_ID>
000D094300000001

> <PUBCHEM_MMFF94_ENERGY>
58.3088

> <PUBCHEM_FEATURE_SELFOVERLAP>
40.687

> <PUBCHEM_SHAPE_FINGERPRINT>
11578080 2 17387156275995872329
11582403 64 16329142253077405869
12236239 1 17314218977949858960
12363563 72 18341049730650727698
12506688 2 18342452638657211438
12553582 1 18334570265657322582
12707595 3 18413673517115428114
12788726 201 18050568744185420232
13004483 165 18191603036371717546
13083527 12 18335149687174281880
13533116 47 18265610984366274523
13544592 145 18060423482717279355
13544653 18 18341895242370882006
13583140 156 17974562503998395855
13911987 19 18057301939462830684
14341114 328 16081668694261292098
14848160 33 18412265047010141054
15422964 175 18262237853815684054
16945 1 18265899042968505169
17818456 19 17532636014178920065
1813 80 18041268941804130294
18186145 218 17346886637190307893
18915476 22 18197781003050281857
19862831 5 14692568827410684143
200 152 18343018925953306502
20361792 2 18334010622691231140
20600515 1 14779547833788273923
20626108 58 17967827011287918423
20645477 70 18339653222081587935
20671657 53 18410858780291057427
20832881 197 18272091651517389123
21296965 67 18408886273584225208
21731516 1 18263632004515583516
22182313 1 17560245700487684371
2255824 54 18117554037712891396
23419403 2 17841752670372960988
23526113 38 17632287930894773025
23559900 14 17561084653001565076
23598288 3 17836332189474471068
23728640 28 17258217896152437546
3286 77 18341613694194883719
394222 165 17316481699886360280
463206 1 18201163242710316291
7364860 26 18337672988681266664
7808743 9 8500927511394425538
7970288 3 18334853969749258822
81228 2 17976825612023602552
84936 31 18266180521870911748
90316 7 16660635293740997043

> <PUBCHEM_SHAPE_MULTIPOLES>
425.18
7.96
3.24
1.63
2.14
2.54
-0.11
-6.89
0.53
-3.63
-0.46
0.77
-0.3
-0.16

> <PUBCHEM_SHAPE_SELFOVERLAP>
900.592

> <PUBCHEM_SHAPE_VOLUME>
240.3

> <PUBCHEM_COORDINATE_TYPE>
2
5
10

$$$$

