51090919
  -OEChem-06241223003D

 41 42  0     0  0  0  0  0  0999 V2000
   -3.8808   -2.7179   -1.1299 F   0  0  0  0  0  0  0  0  0  0  0  0
   -0.9528    1.3992    1.0361 O   0  0  0  0  0  0  0  0  0  0  0  0
   -1.8632    2.9102   -0.5928 O   0  0  0  0  0  0  0  0  0  0  0  0
    2.8724    0.2095    1.8483 O   0  0  0  0  0  0  0  0  0  0  0  0
    1.5217   -0.8453    0.2967 N   0  0  0  0  0  0  0  0  0  0  0  0
   -1.4327   -0.9041    0.8575 C   0  0  0  0  0  0  0  0  0  0  0  0
   -0.3528   -1.2067    1.8671 C   0  0  0  0  0  0  0  0  0  0  0  0
   -1.7091    0.4067    0.4666 C   0  0  0  0  0  0  0  0  0  0  0  0
   -2.7034    0.6690   -0.4836 C   0  0  0  0  0  0  0  0  0  0  0  0
    0.9172   -1.7666    1.2308 C   0  0  0  0  0  0  0  0  0  0  0  0
   -2.9852    2.0823   -0.8936 C   0  0  0  0  0  0  0  0  0  0  0  0
   -2.1670   -1.9585    0.3159 C   0  0  0  0  0  0  0  0  0  0  0  0
   -3.4435   -0.3934   -1.0130 C   0  0  0  0  0  0  0  0  0  0  0  0
   -3.1734   -1.7035   -0.6152 C   0  0  0  0  0  0  0  0  0  0  0  0
   -1.4508    2.7128    0.7577 C   0  0  0  0  0  0  0  0  0  0  0  0
    2.4682    0.0841    0.6938 C   0  0  0  0  0  0  0  0  0  0  0  0
    2.9736    0.9586   -0.4204 C   0  0  0  0  0  0  0  0  0  0  0  0
    4.0522    0.5002   -1.0837 C   0  0  0  0  0  0  0  0  0  0  0  0
    4.7908   -0.7830   -0.8228 C   0  0  0  0  0  0  0  0  0  0  0  0
    2.3029    2.2758   -0.6761 C   0  0  0  0  0  0  0  0  0  0  0  0
    4.2157   -1.9292   -1.6394 C   0  0  0  0  0  0  0  0  0  0  0  0
   -0.7447   -1.9381    2.5862 H   0  0  0  0  0  0  0  0  0  0  0  0
   -0.1101   -0.3205    2.4652 H   0  0  0  0  0  0  0  0  0  0  0  0
    1.6426   -2.0128    2.0141 H   0  0  0  0  0  0  0  0  0  0  0  0
    0.7049   -2.6870    0.6759 H   0  0  0  0  0  0  0  0  0  0  0  0
   -3.8702    2.4644   -0.3722 H   0  0  0  0  0  0  0  0  0  0  0  0
   -3.1583    2.1453   -1.9726 H   0  0  0  0  0  0  0  0  0  0  0  0
   -1.9677   -2.9846    0.6135 H   0  0  0  0  0  0  0  0  0  0  0  0
   -4.2298   -0.2078   -1.7399 H   0  0  0  0  0  0  0  0  0  0  0  0
   -0.6350    3.4147    0.9561 H   0  0  0  0  0  0  0  0  0  0  0  0
   -2.2669    2.9556    1.4508 H   0  0  0  0  0  0  0  0  0  0  0  0
    1.2251   -0.8794   -0.6745 H   0  0  0  0  0  0  0  0  0  0  0  0
    4.4506    1.1076   -1.8946 H   0  0  0  0  0  0  0  0  0  0  0  0
    4.7846   -1.0449    0.2406 H   0  0  0  0  0  0  0  0  0  0  0  0
    5.8444   -0.6367   -1.0891 H   0  0  0  0  0  0  0  0  0  0  0  0
    1.2757    2.1150   -1.0182 H   0  0  0  0  0  0  0  0  0  0  0  0
    2.8276    2.8576   -1.4405 H   0  0  0  0  0  0  0  0  0  0  0  0
    2.2741    2.8720    0.2414 H   0  0  0  0  0  0  0  0  0  0  0  0
    4.8063   -2.8367   -1.4760 H   0  0  0  0  0  0  0  0  0  0  0  0
    4.2420   -1.7024   -2.7108 H   0  0  0  0  0  0  0  0  0  0  0  0
    3.1817   -2.1546   -1.3672 H   0  0  0  0  0  0  0  0  0  0  0  0
  1 14  1  0  0  0  0
  2  8  1  0  0  0  0
  2 15  1  0  0  0  0
  3 11  1  0  0  0  0
  3 15  1  0  0  0  0
  4 16  2  0  0  0  0
  5 10  1  0  0  0  0
  5 16  1  0  0  0  0
  5 32  1  0  0  0  0
  6  7  1  0  0  0  0
  6  8  1  0  0  0  0
  6 12  2  0  0  0  0
  7 10  1  0  0  0  0
  7 22  1  0  0  0  0
  7 23  1  0  0  0  0
  8  9  2  0  0  0  0
  9 11  1  0  0  0  0
  9 13  1  0  0  0  0
 10 24  1  0  0  0  0
 10 25  1  0  0  0  0
 11 26  1  0  0  0  0
 11 27  1  0  0  0  0
 12 14  1  0  0  0  0
 12 28  1  0  0  0  0
 13 14  2  0  0  0  0
 13 29  1  0  0  0  0
 15 30  1  0  0  0  0
 15 31  1  0  0  0  0
 16 17  1  0  0  0  0
 17 18  2  0  0  0  0
 17 20  1  0  0  0  0
 18 19  1  0  0  0  0
 18 33  1  0  0  0  0
 19 21  1  0  0  0  0
 19 34  1  0  0  0  0
 19 35  1  0  0  0  0
 20 36  1  0  0  0  0
 20 37  1  0  0  0  0
 20 38  1  0  0  0  0
 21 39  1  0  0  0  0
 21 40  1  0  0  0  0
 21 41  1  0  0  0  0
M  END
> <PUBCHEM_COMPOUND_CID>
51090919

> <PUBCHEM_CONFORMER_RMSD>
0.8

> <PUBCHEM_CONFORMER_DIVERSEORDER>
1
54
81
82
86
28
52
97
68
58
60
40
99
63
48
42
12
11
84
32
62
53
8
45
15
83
17
57
76
70
10
66
73
67
101
100
35
6
89
90
21
27
98
36
94
41
75
31
51
7
78
74
13
16
71
102
72
22
25
69
34
33
30
85
64
18
14
19
61
77
93
5
29
24
50
95
88
59
96
79
44
56
91
26
80
20
9
55
3
37
43
92
23
39
46
47
87
38
4
49
65
2

> <PUBCHEM_MMFF94_PARTIAL_CHARGES>
24
1 -0.19
10 0.3
11 0.42
12 -0.15
13 -0.15
14 0.19
15 0.56
16 0.62
17 -0.12
18 -0.29
19 0.14
2 -0.36
20 0.14
28 0.15
29 0.15
3 -0.56
32 0.37
33 0.15
4 -0.57
5 -0.73
6 -0.14
7 0.14
8 0.08
9 -0.14

> <PUBCHEM_EFFECTIVE_ROTOR_COUNT>
6.8

> <PUBCHEM_PHARMACOPHORE_FEATURES>
8
1 2 acceptor
1 20 hydrophobe
1 21 hydrophobe
1 3 acceptor
1 4 acceptor
1 5 donor
6 2 3 8 9 11 15 rings
6 6 8 9 12 13 14 rings

> <PUBCHEM_HEAVY_ATOM_COUNT>
21

> <PUBCHEM_ATOM_DEF_STEREO_COUNT>
0

> <PUBCHEM_ATOM_UDEF_STEREO_COUNT>
0

> <PUBCHEM_BOND_DEF_STEREO_COUNT>
1

> <PUBCHEM_BOND_UDEF_STEREO_COUNT>
0

> <PUBCHEM_ISOTOPIC_ATOM_COUNT>
0

> <PUBCHEM_COMPONENT_COUNT>
1

> <PUBCHEM_CACTVS_TAUTO_COUNT>
2

> <PUBCHEM_CONFORMER_ID>
030B95E700000001

> <PUBCHEM_MMFF94_ENERGY>
44.0023

> <PUBCHEM_FEATURE_SELFOVERLAP>
40.658

> <PUBCHEM_SHAPE_FINGERPRINT>
10498660 4 18272094876499829468
10764073 3 17331342978568058203
11640471 11 17632300119837710249
12596599 1 18337104683067164316
12892183 10 9583516525103723716
14251745 187 18338509850543021742
14251751 93 18338791338104012582
14251764 30 18193265305081021363
14790565 3 18266468775350981437
14863182 85 15081614202456101983
14955137 171 18192693589404628859
15475509 8 18259989258865012959
1813 80 14707199981512618146
192875 21 17916889944528913528
19862831 5 18343862221290942590
20775438 99 17325229332835428550
21475661 188 14617723044105259269
21864079 5 17989202659661348108
22907989 373 17701795735919030110
23419403 2 16698060268927478681
23557571 272 18115606879918695995
23559900 14 18333737914154721944
27216 239 11311767350273624813
2748010 2 17192085055254941923
5048184 11 18057605562700293301
5262128 65 18336813222254482660
9709674 26 18341326683084586164

> <PUBCHEM_SHAPE_MULTIPOLES>
402.31
8.21
3.05
1.56
6.59
1.02
0.3
-1.95
-4.5
-2.13
-0.45
0.5
-0.5
-0.03

> <PUBCHEM_SHAPE_SELFOVERLAP>
835.957

> <PUBCHEM_SHAPE_VOLUME>
230.2

> <PUBCHEM_COORDINATE_TYPE>
2
5
10

$$$$

