12213
  -OEChem-06261206403D

 20 19  0     0  0  0  0  0  0999 V2000
    2.3444   -1.3975    0.1714 O   0  0  0  0  0  0  0  0  0  0  0  0
   -0.1649   -0.2767    0.2204 N   0  0  0  0  0  0  0  0  0  0  0  0
    0.9471    0.4454   -0.0328 N   0  0  0  0  0  0  0  0  0  0  0  0
    3.2140    0.6720   -0.3130 N   0  0  0  0  0  0  0  0  0  0  0  0
   -2.5453   -0.4628    0.5340 C   0  0  0  0  0  0  0  0  0  0  0  0
   -1.3022    0.3507    0.2253 C   0  0  0  0  0  0  0  0  0  0  0  0
   -3.1847   -0.9646   -0.7474 C   0  0  0  0  0  0  0  0  0  0  0  0
   -1.4828    1.8309   -0.0191 C   0  0  0  0  0  0  0  0  0  0  0  0
    2.1744   -0.1974   -0.0387 C   0  0  0  0  0  0  0  0  0  0  0  0
   -2.2681   -1.3130    1.1673 H   0  0  0  0  0  0  0  0  0  0  0  0
   -3.2513    0.1532    1.1003 H   0  0  0  0  0  0  0  0  0  0  0  0
   -3.4811   -0.1304   -1.3918 H   0  0  0  0  0  0  0  0  0  0  0  0
   -2.4884   -1.5910   -1.3149 H   0  0  0  0  0  0  0  0  0  0  0  0
   -4.0759   -1.5583   -0.5227 H   0  0  0  0  0  0  0  0  0  0  0  0
   -1.0791    2.0980   -0.9995 H   0  0  0  0  0  0  0  0  0  0  0  0
   -0.9699    2.3979    0.7625 H   0  0  0  0  0  0  0  0  0  0  0  0
   -2.5432    2.0964   -0.0027 H   0  0  0  0  0  0  0  0  0  0  0  0
    0.8694    1.4403   -0.2070 H   0  0  0  0  0  0  0  0  0  0  0  0
    4.1744    0.3477   -0.3520 H   0  0  0  0  0  0  0  0  0  0  0  0
    3.0508    1.6586   -0.4835 H   0  0  0  0  0  0  0  0  0  0  0  0
  1  9  2  0  0  0  0
  2  3  1  0  0  0  0
  2  6  2  0  0  0  0
  3  9  1  0  0  0  0
  3 18  1  0  0  0  0
  4  9  1  0  0  0  0
  4 19  1  0  0  0  0
  4 20  1  0  0  0  0
  5  6  1  0  0  0  0
  5  7  1  0  0  0  0
  5 10  1  0  0  0  0
  5 11  1  0  0  0  0
  6  8  1  0  0  0  0
  7 12  1  0  0  0  0
  7 13  1  0  0  0  0
  7 14  1  0  0  0  0
  8 15  1  0  0  0  0
  8 16  1  0  0  0  0
  8 17  1  0  0  0  0
M  END
> <PUBCHEM_COMPOUND_CID>
12213

> <PUBCHEM_CONFORMER_RMSD>
0.6

> <PUBCHEM_CONFORMER_DIVERSEORDER>
1
2

> <PUBCHEM_MMFF94_PARTIAL_CHARGES>
11
1 -0.57
18 0.37
19 0.37
2 -0.51
20 0.37
3 -0.37
4 -0.8
5 0.06
6 0.33
8 0.06
9 0.69

> <PUBCHEM_EFFECTIVE_ROTOR_COUNT>
3

> <PUBCHEM_PHARMACOPHORE_FEATURES>
5
1 1 acceptor
1 2 acceptor
1 3 donor
1 4 donor
1 7 hydrophobe

> <PUBCHEM_HEAVY_ATOM_COUNT>
9

> <PUBCHEM_ATOM_DEF_STEREO_COUNT>
0

> <PUBCHEM_ATOM_UDEF_STEREO_COUNT>
0

> <PUBCHEM_BOND_DEF_STEREO_COUNT>
0

> <PUBCHEM_BOND_UDEF_STEREO_COUNT>
1

> <PUBCHEM_ISOTOPIC_ATOM_COUNT>
0

> <PUBCHEM_COMPONENT_COUNT>
1

> <PUBCHEM_CACTVS_TAUTO_COUNT>
3

> <PUBCHEM_CONFORMER_ID>
00002FB500000001

> <PUBCHEM_MMFF94_ENERGY>
16.1664

> <PUBCHEM_FEATURE_SELFOVERLAP>
25.429

> <PUBCHEM_SHAPE_FINGERPRINT>
10857977 72 15430036535184364427
11062470 55 17704076166127096119
12897270 3 18341331115116113731
12932764 1 18113618997234315912
14325111 11 18411416245555255000
14390081 3 18412259554036840432
15310529 11 18335140907680522716
20645464 45 10015588328379679249
21293036 1 17846223207136104839
23552423 10 18200028585248196058
3248919 1 17632569461790253024
5460574 1 9007061249025923320
8030462 33 18201710786630798638

> <PUBCHEM_SHAPE_MULTIPOLES>
164.4
5.25
1.4
0.7
1.49
0.41
-0.03
-1.26
-0.69
-0.4
-0.06
-0.31
-0.07
-0.31

> <PUBCHEM_SHAPE_SELFOVERLAP>
303.684

> <PUBCHEM_SHAPE_VOLUME>
104.4

> <PUBCHEM_COORDINATE_TYPE>
2
5
10

$$$$

