8613
  -OEChem-06261202572D

 22 21  0     0  0  0  0  0  0999 V2000
    2.5000    2.6200    0.0000 I   0  0  0  0  0  0  0  0  0  0  0  0
    6.8301    7.1200    0.0000 Na  0  3  0  0  0  0  0  0  0  0  0  0
    3.3660    4.1200    0.0000 O   0  0  0  0  0  0  0  0  0  0  0  0
    5.9641    6.6200    0.0000 O   0  5  0  0  0  0  0  0  0  0  0  0
    6.8301    5.1200    0.0000 O   0  0  0  0  0  0  0  0  0  0  0  0
    5.0981    4.1200    0.0000 N   0  0  0  0  0  0  0  0  0  0  0  0
    4.2321    2.6200    0.0000 C   0  0  0  0  0  0  0  0  0  0  0  0
    4.2321    3.6200    0.0000 C   0  0  0  0  0  0  0  0  0  0  0  0
    3.3660    2.1200    0.0000 C   0  0  0  0  0  0  0  0  0  0  0  0
    5.0981    2.1200    0.0000 C   0  0  0  0  0  0  0  0  0  0  0  0
    5.0981    5.1200    0.0000 C   0  0  0  0  0  0  0  0  0  0  0  0
    3.3660    1.1200    0.0000 C   0  0  0  0  0  0  0  0  0  0  0  0
    5.0981    1.1200    0.0000 C   0  0  0  0  0  0  0  0  0  0  0  0
    4.2321    0.6200    0.0000 C   0  0  0  0  0  0  0  0  0  0  0  0
    5.9641    5.6200    0.0000 C   0  0  0  0  0  0  0  0  0  0  0  0
    5.6350    2.4300    0.0000 H   0  0  0  0  0  0  0  0  0  0  0  0
    5.6350    3.8100    0.0000 H   0  0  0  0  0  0  0  0  0  0  0  0
    4.8860    5.7026    0.0000 H   0  0  0  0  0  0  0  0  0  0  0  0
    4.4875    5.0123    0.0000 H   0  0  0  0  0  0  0  0  0  0  0  0
    2.8291    0.8100    0.0000 H   0  0  0  0  0  0  0  0  0  0  0  0
    5.6350    0.8100    0.0000 H   0  0  0  0  0  0  0  0  0  0  0  0
    4.2321    0.0000    0.0000 H   0  0  0  0  0  0  0  0  0  0  0  0
  1  9  1  0  0  0  0
  3  8  2  0  0  0  0
  4 15  1  0  0  0  0
  5 15  2  0  0  0  0
  6  8  1  0  0  0  0
  6 11  1  0  0  0  0
  6 17  1  0  0  0  0
  7  8  1  0  0  0  0
  7  9  1  0  0  0  0
  7 10  2  0  0  0  0
  9 12  2  0  0  0  0
 10 13  1  0  0  0  0
 10 16  1  0  0  0  0
 11 15  1  0  0  0  0
 11 18  1  0  0  0  0
 11 19  1  0  0  0  0
 12 14  1  0  0  0  0
 12 20  1  0  0  0  0
 13 14  2  0  0  0  0
 13 21  1  0  0  0  0
 14 22  1  0  0  0  0
M  CHG  2   2   1   4  -1
M  END
> <PUBCHEM_COMPOUND_CID>
8613

> <PUBCHEM_COMPOUND_CANONICALIZED>
1

> <PUBCHEM_CACTVS_COMPLEXITY>
227

> <PUBCHEM_CACTVS_HBOND_ACCEPTOR>
3

> <PUBCHEM_CACTVS_HBOND_DONOR>
1

> <PUBCHEM_CACTVS_ROTATABLE_BOND>
2

> <PUBCHEM_CACTVS_SUBSKEYS>
AAADcYByMCAAAgAAAAAAAAAAAAAAAAAAAAAwAAAAAAAAAAABAAAAHgAwAAAADADDmAQwCILAAACIAiHSGACCAAAkAAAIiIGIBMgKIDKAlTGEIQhghgCYiYcYiACOAAAAAAAAAAAAAAAAAAAAAAAAAAAAAA==

> <PUBCHEM_IUPAC_OPENEYE_NAME>
sodium 2-[(2-iodobenzoyl)amino]acetate

> <PUBCHEM_IUPAC_CAS_NAME>
sodium 2-[[(2-iodophenyl)-oxomethyl]amino]acetate

> <PUBCHEM_IUPAC_NAME>
sodium 2-[(2-iodobenzoyl)amino]acetate

> <PUBCHEM_IUPAC_SYSTEMATIC_NAME>
sodium 2-[(2-iodanylphenyl)carbonylamino]ethanoate

> <PUBCHEM_IUPAC_TRADITIONAL_NAME>
sodium 2-[(2-iodobenzoyl)amino]acetate

> <PUBCHEM_IUPAC_INCHI>
InChI=1S/C9H8INO3.Na/c10-7-4-2-1-3-6(7)9(14)11-5-8(12)13;/h1-4H,5H2,(H,11,14)(H,12,13);/q;+1/p-1

> <PUBCHEM_IUPAC_INCHIKEY>
XYITYKDGJLHYPW-UHFFFAOYSA-M

> <PUBCHEM_EXACT_MASS>
326.936835

> <PUBCHEM_MOLECULAR_FORMULA>
C9H7INNaO3

> <PUBCHEM_MOLECULAR_WEIGHT>
327.051019

> <PUBCHEM_OPENEYE_CAN_SMILES>
C1=CC=C(C(=C1)C(=O)NCC(=O)[O-])I.[Na+]

> <PUBCHEM_OPENEYE_ISO_SMILES>
C1=CC=C(C(=C1)C(=O)NCC(=O)[O-])I.[Na+]

> <PUBCHEM_CACTVS_TPSA>
69.2

> <PUBCHEM_MONOISOTOPIC_WEIGHT>
326.936835

> <PUBCHEM_TOTAL_CHARGE>
0

> <PUBCHEM_HEAVY_ATOM_COUNT>
15

> <PUBCHEM_ATOM_DEF_STEREO_COUNT>
0

> <PUBCHEM_ATOM_UDEF_STEREO_COUNT>
0

> <PUBCHEM_BOND_DEF_STEREO_COUNT>
0

> <PUBCHEM_BOND_UDEF_STEREO_COUNT>
0

> <PUBCHEM_ISOTOPIC_ATOM_COUNT>
0

> <PUBCHEM_COMPONENT_COUNT>
2

> <PUBCHEM_CACTVS_TAUTO_COUNT>
2

> <PUBCHEM_COORDINATE_TYPE>
1
5
255

> <PUBCHEM_BONDANNOTATIONS>
10  13  8
12  14  8
13  14  8
7  10  8
7  9  8
9  12  8

$$$$

