586327
  -OEChem-06241222462D

134134  0     0  0  0  0  0  0999 V2000
   34.0429    1.3450    0.0000 O   0  0  0  0  0  0  0  0  0  0  0  0
   35.7750    0.3450    0.0000 O   0  0  0  0  0  0  0  0  0  0  0  0
   19.3205   -0.1550    0.0000 C   0  0  0  0  0  0  0  0  0  0  0  0
   15.8564   -0.1550    0.0000 C   0  0  0  0  0  0  0  0  0  0  0  0
   18.4545    0.3450    0.0000 C   0  0  0  0  0  0  0  0  0  0  0  0
   22.7846   -0.1550    0.0000 C   0  0  0  0  0  0  0  0  0  0  0  0
   14.9904    0.3450    0.0000 C   0  0  0  0  0  0  0  0  0  0  0  0
   21.9186    0.3450    0.0000 C   0  0  0  0  0  0  0  0  0  0  0  0
   12.3923   -0.1550    0.0000 C   0  0  0  0  0  0  0  0  0  0  0  0
   16.7224    0.3450    0.0000 C   0  0  0  0  0  0  0  0  0  0  0  0
   20.1865    0.3450    0.0000 C   0  0  0  0  0  0  0  0  0  0  0  0
   11.5263    0.3450    0.0000 C   0  0  0  0  0  0  0  0  0  0  0  0
   13.2583    0.3450    0.0000 C   0  0  0  0  0  0  0  0  0  0  0  0
   23.6506    0.3450    0.0000 C   0  0  0  0  0  0  0  0  0  0  0  0
   25.3827    0.3450    0.0000 C   0  0  0  0  0  0  0  0  0  0  0  0
   26.2487   -0.1550    0.0000 C   0  0  0  0  0  0  0  0  0  0  0  0
   17.5885   -0.1550    0.0000 C   0  0  0  0  0  0  0  0  0  0  0  0
   21.0526   -0.1550    0.0000 C   0  0  0  0  0  0  0  0  0  0  0  0
   14.1244   -0.1550    0.0000 C   0  0  0  0  0  0  0  0  0  0  0  0
    8.9282   -0.1550    0.0000 C   0  0  0  0  0  0  0  0  0  0  0  0
    9.7942    0.3450    0.0000 C   0  0  0  0  0  0  0  0  0  0  0  0
   24.5167   -0.1550    0.0000 C   0  0  0  0  0  0  0  0  0  0  0  0
   27.1147    0.3450    0.0000 C   0  0  0  0  0  0  0  0  0  0  0  0
   10.6603   -0.1550    0.0000 C   0  0  0  0  0  0  0  0  0  0  0  0
    8.0622    0.3450    0.0000 C   0  0  0  0  0  0  0  0  0  0  0  0
   28.8468    0.3450    0.0000 C   0  0  0  0  0  0  0  0  0  0  0  0
   29.7128   -0.1550    0.0000 C   0  0  0  0  0  0  0  0  0  0  0  0
   27.9808   -0.1550    0.0000 C   0  0  0  0  0  0  0  0  0  0  0  0
   16.7224    1.3450    0.0000 C   0  0  0  0  0  0  0  0  0  0  0  0
   20.1865    1.3450    0.0000 C   0  0  0  0  0  0  0  0  0  0  0  0
   13.2583    1.3450    0.0000 C   0  0  0  0  0  0  0  0  0  0  0  0
   23.6506    1.3450    0.0000 C   0  0  0  0  0  0  0  0  0  0  0  0
    7.1962   -0.1550    0.0000 C   0  0  0  0  0  0  0  0  0  0  0  0
    6.3301    0.3450    0.0000 C   0  0  0  0  0  0  0  0  0  0  0  0
    5.4641   -0.1550    0.0000 C   0  0  0  0  0  0  0  0  0  0  0  0
   30.5788    0.3450    0.0000 C   0  0  0  0  0  0  0  0  0  0  0  0
    9.7942    1.3450    0.0000 C   0  0  0  0  0  0  0  0  0  0  0  0
   27.1147    1.3450    0.0000 C   0  0  0  0  0  0  0  0  0  0  0  0
    4.5981    0.3450    0.0000 C   0  0  0  0  0  0  0  0  0  0  0  0
   31.4449   -0.1550    0.0000 C   0  0  0  0  0  0  0  0  0  0  0  0
   32.3109    0.3450    0.0000 C   0  0  0  0  0  0  0  0  0  0  0  0
    6.3301    1.3450    0.0000 C   0  0  0  0  0  0  0  0  0  0  0  0
   30.5788    1.3450    0.0000 C   0  0  0  0  0  0  0  0  0  0  0  0
    3.7321   -0.1550    0.0000 C   0  0  0  0  0  0  0  0  0  0  0  0
   33.1769   -0.1550    0.0000 C   0  0  0  0  0  0  0  0  0  0  0  0
    2.8660    0.3450    0.0000 C   0  0  0  0  0  0  0  0  0  0  0  0
   34.0429    0.3450    0.0000 C   0  0  0  0  0  0  0  0  0  0  0  0
   33.1769   -1.1550    0.0000 C   0  0  0  0  0  0  0  0  0  0  0  0
   34.9090   -0.1550    0.0000 C   0  0  0  0  0  0  0  0  0  0  0  0
    2.0000   -0.1550    0.0000 C   0  0  0  0  0  0  0  0  0  0  0  0
    2.8660    1.3450    0.0000 C   0  0  0  0  0  0  0  0  0  0  0  0
   34.0429   -1.6550    0.0000 C   0  0  0  0  0  0  0  0  0  0  0  0
   34.9090   -1.1550    0.0000 C   0  0  0  0  0  0  0  0  0  0  0  0
   36.6410   -0.1550    0.0000 C   0  0  0  0  0  0  0  0  0  0  0  0
   18.9220   -0.6299    0.0000 H   0  0  0  0  0  0  0  0  0  0  0  0
   19.7190   -0.6299    0.0000 H   0  0  0  0  0  0  0  0  0  0  0  0
   15.4579   -0.6299    0.0000 H   0  0  0  0  0  0  0  0  0  0  0  0
   16.2549   -0.6299    0.0000 H   0  0  0  0  0  0  0  0  0  0  0  0
   18.8530    0.8199    0.0000 H   0  0  0  0  0  0  0  0  0  0  0  0
   18.0560    0.8199    0.0000 H   0  0  0  0  0  0  0  0  0  0  0  0
   22.3861   -0.6299    0.0000 H   0  0  0  0  0  0  0  0  0  0  0  0
   23.1831   -0.6299    0.0000 H   0  0  0  0  0  0  0  0  0  0  0  0
   15.3889    0.8199    0.0000 H   0  0  0  0  0  0  0  0  0  0  0  0
   14.5919    0.8199    0.0000 H   0  0  0  0  0  0  0  0  0  0  0  0
   22.3171    0.8199    0.0000 H   0  0  0  0  0  0  0  0  0  0  0  0
   21.5201    0.8199    0.0000 H   0  0  0  0  0  0  0  0  0  0  0  0
   11.9938   -0.6299    0.0000 H   0  0  0  0  0  0  0  0  0  0  0  0
   12.7908   -0.6299    0.0000 H   0  0  0  0  0  0  0  0  0  0  0  0
   11.9248    0.8199    0.0000 H   0  0  0  0  0  0  0  0  0  0  0  0
   11.1278    0.8199    0.0000 H   0  0  0  0  0  0  0  0  0  0  0  0
   25.7812    0.8199    0.0000 H   0  0  0  0  0  0  0  0  0  0  0  0
   24.9842    0.8199    0.0000 H   0  0  0  0  0  0  0  0  0  0  0  0
   25.8502   -0.6299    0.0000 H   0  0  0  0  0  0  0  0  0  0  0  0
   26.6472   -0.6299    0.0000 H   0  0  0  0  0  0  0  0  0  0  0  0
   17.5885   -0.7750    0.0000 H   0  0  0  0  0  0  0  0  0  0  0  0
   21.0526   -0.7750    0.0000 H   0  0  0  0  0  0  0  0  0  0  0  0
   14.1244   -0.7750    0.0000 H   0  0  0  0  0  0  0  0  0  0  0  0
    8.5297   -0.6299    0.0000 H   0  0  0  0  0  0  0  0  0  0  0  0
    9.3267   -0.6299    0.0000 H   0  0  0  0  0  0  0  0  0  0  0  0
   24.5167   -0.7750    0.0000 H   0  0  0  0  0  0  0  0  0  0  0  0
   10.6603   -0.7750    0.0000 H   0  0  0  0  0  0  0  0  0  0  0  0
    8.4607    0.8199    0.0000 H   0  0  0  0  0  0  0  0  0  0  0  0
    7.6636    0.8199    0.0000 H   0  0  0  0  0  0  0  0  0  0  0  0
   29.2453    0.8199    0.0000 H   0  0  0  0  0  0  0  0  0  0  0  0
   28.4483    0.8199    0.0000 H   0  0  0  0  0  0  0  0  0  0  0  0
   29.3143   -0.6299    0.0000 H   0  0  0  0  0  0  0  0  0  0  0  0
   30.1113   -0.6299    0.0000 H   0  0  0  0  0  0  0  0  0  0  0  0
   27.9808   -0.7750    0.0000 H   0  0  0  0  0  0  0  0  0  0  0  0
   17.3424    1.3450    0.0000 H   0  0  0  0  0  0  0  0  0  0  0  0
   16.7224    1.9650    0.0000 H   0  0  0  0  0  0  0  0  0  0  0  0
   16.1024    1.3450    0.0000 H   0  0  0  0  0  0  0  0  0  0  0  0
   20.8065    1.3450    0.0000 H   0  0  0  0  0  0  0  0  0  0  0  0
   20.1865    1.9650    0.0000 H   0  0  0  0  0  0  0  0  0  0  0  0
   19.5665    1.3450    0.0000 H   0  0  0  0  0  0  0  0  0  0  0  0
   13.8783    1.3450    0.0000 H   0  0  0  0  0  0  0  0  0  0  0  0
   13.2583    1.9650    0.0000 H   0  0  0  0  0  0  0  0  0  0  0  0
   12.6383    1.3450    0.0000 H   0  0  0  0  0  0  0  0  0  0  0  0
   24.2706    1.3450    0.0000 H   0  0  0  0  0  0  0  0  0  0  0  0
   23.6506    1.9650    0.0000 H   0  0  0  0  0  0  0  0  0  0  0  0
   23.0306    1.3450    0.0000 H   0  0  0  0  0  0  0  0  0  0  0  0
    7.1962   -0.7750    0.0000 H   0  0  0  0  0  0  0  0  0  0  0  0
    5.0656   -0.6299    0.0000 H   0  0  0  0  0  0  0  0  0  0  0  0
    5.8626   -0.6299    0.0000 H   0  0  0  0  0  0  0  0  0  0  0  0
   10.4142    1.3450    0.0000 H   0  0  0  0  0  0  0  0  0  0  0  0
    9.7942    1.9650    0.0000 H   0  0  0  0  0  0  0  0  0  0  0  0
    9.1742    1.3450    0.0000 H   0  0  0  0  0  0  0  0  0  0  0  0
   27.7347    1.3450    0.0000 H   0  0  0  0  0  0  0  0  0  0  0  0
   27.1147    1.9650    0.0000 H   0  0  0  0  0  0  0  0  0  0  0  0
   26.4947    1.3450    0.0000 H   0  0  0  0  0  0  0  0  0  0  0  0
    4.9966    0.8199    0.0000 H   0  0  0  0  0  0  0  0  0  0  0  0
    4.1995    0.8199    0.0000 H   0  0  0  0  0  0  0  0  0  0  0  0
   31.4449   -0.7750    0.0000 H   0  0  0  0  0  0  0  0  0  0  0  0
   32.7094    0.8199    0.0000 H   0  0  0  0  0  0  0  0  0  0  0  0
   31.9124    0.8199    0.0000 H   0  0  0  0  0  0  0  0  0  0  0  0
    6.9501    1.3450    0.0000 H   0  0  0  0  0  0  0  0  0  0  0  0
    6.3301    1.9650    0.0000 H   0  0  0  0  0  0  0  0  0  0  0  0
    5.7101    1.3450    0.0000 H   0  0  0  0  0  0  0  0  0  0  0  0
   31.1988    1.3450    0.0000 H   0  0  0  0  0  0  0  0  0  0  0  0
   30.5788    1.9650    0.0000 H   0  0  0  0  0  0  0  0  0  0  0  0
   29.9588    1.3450    0.0000 H   0  0  0  0  0  0  0  0  0  0  0  0
    3.7321   -0.7750    0.0000 H   0  0  0  0  0  0  0  0  0  0  0  0
   32.6400   -1.4650    0.0000 H   0  0  0  0  0  0  0  0  0  0  0  0
    1.6900    0.3819    0.0000 H   0  0  0  0  0  0  0  0  0  0  0  0
    1.4631   -0.4650    0.0000 H   0  0  0  0  0  0  0  0  0  0  0  0
    2.3100   -0.6919    0.0000 H   0  0  0  0  0  0  0  0  0  0  0  0
    3.4860    1.3450    0.0000 H   0  0  0  0  0  0  0  0  0  0  0  0
    2.8660    1.9650    0.0000 H   0  0  0  0  0  0  0  0  0  0  0  0
    2.2460    1.3450    0.0000 H   0  0  0  0  0  0  0  0  0  0  0  0
   34.0429   -2.2750    0.0000 H   0  0  0  0  0  0  0  0  0  0  0  0
   35.4459   -1.4650    0.0000 H   0  0  0  0  0  0  0  0  0  0  0  0
   34.5799    1.6550    0.0000 H   0  0  0  0  0  0  0  0  0  0  0  0
   36.3310   -0.6919    0.0000 H   0  0  0  0  0  0  0  0  0  0  0  0
   37.1780   -0.4650    0.0000 H   0  0  0  0  0  0  0  0  0  0  0  0
   36.9510    0.3819    0.0000 H   0  0  0  0  0  0  0  0  0  0  0  0
  1 47  1  0  0  0  0
  1131  1  0  0  0  0
  2 49  1  0  0  0  0
  2 54  1  0  0  0  0
  3  5  1  0  0  0  0
  3 11  1  0  0  0  0
  3 55  1  0  0  0  0
  3 56  1  0  0  0  0
  4  7  1  0  0  0  0
  4 10  1  0  0  0  0
  4 57  1  0  0  0  0
  4 58  1  0  0  0  0
  5 17  1  0  0  0  0
  5 59  1  0  0  0  0
  5 60  1  0  0  0  0
  6  8  1  0  0  0  0
  6 14  1  0  0  0  0
  6 61  1  0  0  0  0
  6 62  1  0  0  0  0
  7 19  1  0  0  0  0
  7 63  1  0  0  0  0
  7 64  1  0  0  0  0
  8 18  1  0  0  0  0
  8 65  1  0  0  0  0
  8 66  1  0  0  0  0
  9 12  1  0  0  0  0
  9 13  1  0  0  0  0
  9 67  1  0  0  0  0
  9 68  1  0  0  0  0
 10 17  2  3  0  0  0
 10 29  1  0  0  0  0
 11 18  2  3  0  0  0
 11 30  1  0  0  0  0
 12 24  1  0  0  0  0
 12 69  1  0  0  0  0
 12 70  1  0  0  0  0
 13 19  2  3  0  0  0
 13 31  1  0  0  0  0
 14 22  2  3  0  0  0
 14 32  1  0  0  0  0
 15 16  1  0  0  0  0
 15 22  1  0  0  0  0
 15 71  1  0  0  0  0
 15 72  1  0  0  0  0
 16 23  1  0  0  0  0
 16 73  1  0  0  0  0
 16 74  1  0  0  0  0
 17 75  1  0  0  0  0
 18 76  1  0  0  0  0
 19 77  1  0  0  0  0
 20 21  1  0  0  0  0
 20 25  1  0  0  0  0
 20 78  1  0  0  0  0
 20 79  1  0  0  0  0
 21 24  2  3  0  0  0
 21 37  1  0  0  0  0
 22 80  1  0  0  0  0
 23 28  2  3  0  0  0
 23 38  1  0  0  0  0
 24 81  1  0  0  0  0
 25 33  1  0  0  0  0
 25 82  1  0  0  0  0
 25 83  1  0  0  0  0
 26 27  1  0  0  0  0
 26 28  1  0  0  0  0
 26 84  1  0  0  0  0
 26 85  1  0  0  0  0
 27 36  1  0  0  0  0
 27 86  1  0  0  0  0
 27 87  1  0  0  0  0
 28 88  1  0  0  0  0
 29 89  1  0  0  0  0
 29 90  1  0  0  0  0
 29 91  1  0  0  0  0
 30 92  1  0  0  0  0
 30 93  1  0  0  0  0
 30 94  1  0  0  0  0
 31 95  1  0  0  0  0
 31 96  1  0  0  0  0
 31 97  1  0  0  0  0
 32 98  1  0  0  0  0
 32 99  1  0  0  0  0
 32100  1  0  0  0  0
 33 34  2  3  0  0  0
 33101  1  0  0  0  0
 34 35  1  0  0  0  0
 34 42  1  0  0  0  0
 35 39  1  0  0  0  0
 35102  1  0  0  0  0
 35103  1  0  0  0  0
 36 40  2  3  0  0  0
 36 43  1  0  0  0  0
 37104  1  0  0  0  0
 37105  1  0  0  0  0
 37106  1  0  0  0  0
 38107  1  0  0  0  0
 38108  1  0  0  0  0
 38109  1  0  0  0  0
 39 44  1  0  0  0  0
 39110  1  0  0  0  0
 39111  1  0  0  0  0
 40 41  1  0  0  0  0
 40112  1  0  0  0  0
 41 45  1  0  0  0  0
 41113  1  0  0  0  0
 41114  1  0  0  0  0
 42115  1  0  0  0  0
 42116  1  0  0  0  0
 42117  1  0  0  0  0
 43118  1  0  0  0  0
 43119  1  0  0  0  0
 43120  1  0  0  0  0
 44 46  2  0  0  0  0
 44121  1  0  0  0  0
 45 47  2  0  0  0  0
 45 48  1  0  0  0  0
 46 50  1  0  0  0  0
 46 51  1  0  0  0  0
 47 49  1  0  0  0  0
 48 52  2  0  0  0  0
 48122  1  0  0  0  0
 49 53  2  0  0  0  0
 50123  1  0  0  0  0
 50124  1  0  0  0  0
 50125  1  0  0  0  0
 51126  1  0  0  0  0
 51127  1  0  0  0  0
 51128  1  0  0  0  0
 52 53  1  0  0  0  0
 52129  1  0  0  0  0
 53130  1  0  0  0  0
 54132  1  0  0  0  0
 54133  1  0  0  0  0
 54134  1  0  0  0  0
M  END
> <PUBCHEM_COMPOUND_CID>
586327

> <PUBCHEM_COMPOUND_CANONICALIZED>
1

> <PUBCHEM_CACTVS_COMPLEXITY>
1320

> <PUBCHEM_CACTVS_HBOND_ACCEPTOR>
2

> <PUBCHEM_CACTVS_HBOND_DONOR>
1

> <PUBCHEM_CACTVS_ROTATABLE_BOND>
27

> <PUBCHEM_CACTVS_SUBSKEYS>
AAADcfB8MAAAAAAAAAAAAAAAAAAAAAAAAAAwAAAAAAAAAAABAAAAGgAACAAADASAmAIyBoAABgCAAiBCAAACCAAgIAAIiAAGiIgNJiKGMRqAcCMkwBELuAeAwLAOAAABAAAIQAAAAAIAABCAAAAAAAAAAA==

> <PUBCHEM_IUPAC_OPENEYE_NAME>
2-methoxy-6-(3,7,11,15,19,23,27,31,35-nonamethylhexatriaconta-2,6,10,14,18,22,26,30,34-nonaenyl)phenol

> <PUBCHEM_IUPAC_CAS_NAME>
2-methoxy-6-(3,7,11,15,19,23,27,31,35-nonamethylhexatriaconta-2,6,10,14,18,22,26,30,34-nonaenyl)phenol

> <PUBCHEM_IUPAC_NAME>
2-methoxy-6-(3,7,11,15,19,23,27,31,35-nonamethylhexatriaconta-2,6,10,14,18,22,26,30,34-nonaenyl)phenol

> <PUBCHEM_IUPAC_SYSTEMATIC_NAME>
2-methoxy-6-(3,7,11,15,19,23,27,31,35-nonamethylhexatriaconta-2,6,10,14,18,22,26,30,34-nonaenyl)phenol

> <PUBCHEM_IUPAC_TRADITIONAL_NAME>
2-methoxy-6-(3,7,11,15,19,23,27,31,35-nonamethylhexatriaconta-2,6,10,14,18,22,26,30,34-nonaenyl)phenol

> <PUBCHEM_IUPAC_INCHI>
InChI=1S/C52H80O2/c1-41(2)21-12-22-42(3)23-13-24-43(4)25-14-26-44(5)27-15-28-45(6)29-16-30-46(7)31-17-32-47(8)33-18-34-48(9)35-19-36-49(10)39-40-50-37-20-38-51(54-11)52(50)53/h20-21,23,25,27,29,31,33,35,37-39,53H,12-19,22,24,26,28,30,32,34,36,40H2,1-11H3

> <PUBCHEM_IUPAC_INCHIKEY>
XRYXRAOXVPWHHK-UHFFFAOYSA-N

> <PUBCHEM_XLOGP3_AA>
18.3

> <PUBCHEM_EXACT_MASS>
736.615832

> <PUBCHEM_MOLECULAR_FORMULA>
C52H80O2

> <PUBCHEM_MOLECULAR_WEIGHT>
737.1904

> <PUBCHEM_OPENEYE_CAN_SMILES>
CC(=CCCC(=CCCC(=CCCC(=CCCC(=CCCC(=CCCC(=CCCC(=CCCC(=CCC1=C(C(=CC=C1)OC)O)C)C)C)C)C)C)C)C)C

> <PUBCHEM_OPENEYE_ISO_SMILES>
CC(=CCCC(=CCCC(=CCCC(=CCCC(=CCCC(=CCCC(=CCCC(=CCCC(=CCC1=C(C(=CC=C1)OC)O)C)C)C)C)C)C)C)C)C

> <PUBCHEM_CACTVS_TPSA>
29.5

> <PUBCHEM_MONOISOTOPIC_WEIGHT>
736.615832

> <PUBCHEM_TOTAL_CHARGE>
0

> <PUBCHEM_HEAVY_ATOM_COUNT>
54

> <PUBCHEM_ATOM_DEF_STEREO_COUNT>
0

> <PUBCHEM_ATOM_UDEF_STEREO_COUNT>
0

> <PUBCHEM_BOND_DEF_STEREO_COUNT>
0

> <PUBCHEM_BOND_UDEF_STEREO_COUNT>
8

> <PUBCHEM_ISOTOPIC_ATOM_COUNT>
0

> <PUBCHEM_COMPONENT_COUNT>
1

> <PUBCHEM_CACTVS_TAUTO_COUNT>
3

> <PUBCHEM_COORDINATE_TYPE>
1
5
255

> <PUBCHEM_BONDANNOTATIONS>
10  17  1
11  18  1
13  19  1
14  22  1
21  24  1
23  28  1
33  34  1
36  40  1
45  47  8
45  48  8
47  49  8
48  52  8
49  53  8
52  53  8

$$$$

