51090928
  -OEChem-06241223002D

 40 42  0     1  0  0  0  0  0999 V2000
   11.2853    2.2271    0.0000 F   0  0  0  0  0  0  0  0  0  0  0  0
   10.5171    3.4145    0.0000 F   0  0  0  0  0  0  0  0  0  0  0  0
   10.0979    1.4589    0.0000 F   0  0  0  0  0  0  0  0  0  0  0  0
    4.3211    0.4791    0.0000 O   0  0  0  0  0  0  0  0  0  0  0  0
    8.6593    1.9043    0.0000 N   0  0  3  0  0  0  0  0  0  0  0  0
    5.9674   -0.0590    0.0000 N   0  0  0  0  0  0  0  0  0  0  0  0
    5.2619   -2.0205    0.0000 N   0  0  0  0  0  0  0  0  0  0  0  0
    4.6783   -2.8252    0.0000 N   0  0  0  0  0  0  0  0  0  0  0  0
    7.2566    1.0978    0.0000 C   0  0  3  0  0  0  0  0  0  0  0  0
    7.9986    0.4273    0.0000 C   0  0  0  0  0  0  0  0  0  0  0  0
    7.6649    2.0106    0.0000 C   0  0  0  0  0  0  0  0  0  0  0  0
    8.8655    0.9258    0.0000 C   0  0  0  0  0  0  0  0  0  0  0  0
    6.2781    0.8915    0.0000 C   0  0  0  0  0  0  0  0  0  0  0  0
    9.3297    2.6463    0.0000 C   0  0  0  0  0  0  0  0  0  0  0  0
   10.3075    2.4367    0.0000 C   0  0  0  0  0  0  0  0  0  0  0  0
    4.9889   -0.2652    0.0000 C   0  0  0  0  0  0  0  0  0  0  0  0
    4.6783   -1.2157    0.0000 C   0  0  0  0  0  0  0  0  0  0  0  0
    3.7320   -1.5205    0.0000 C   0  0  0  0  0  0  0  0  0  0  0  0
    3.7320   -2.5205    0.0000 C   0  0  0  0  0  0  0  0  0  0  0  0
    2.8660   -1.0205    0.0000 C   0  0  0  0  0  0  0  0  0  0  0  0
    2.8660   -3.0205    0.0000 C   0  0  0  0  0  0  0  0  0  0  0  0
    2.0000   -1.5205    0.0000 C   0  0  0  0  0  0  0  0  0  0  0  0
    2.0000   -2.5205    0.0000 C   0  0  0  0  0  0  0  0  0  0  0  0
    6.8673    1.5803    0.0000 H   0  0  0  0  0  0  0  0  0  0  0  0
    7.5371    0.0133    0.0000 H   0  0  0  0  0  0  0  0  0  0  0  0
    8.3622   -0.0749    0.0000 H   0  0  0  0  0  0  0  0  0  0  0  0
    7.7949    2.6168    0.0000 H   0  0  0  0  0  0  0  0  0  0  0  0
    7.0756    2.2032    0.0000 H   0  0  0  0  0  0  0  0  0  0  0  0
    9.1167    0.3590    0.0000 H   0  0  0  0  0  0  0  0  0  0  0  0
    9.4555    1.1164    0.0000 H   0  0  0  0  0  0  0  0  0  0  0  0
    6.2575    1.5112    0.0000 H   0  0  0  0  0  0  0  0  0  0  0  0
    5.6643    0.9789    0.0000 H   0  0  0  0  0  0  0  0  0  0  0  0
    9.5629    3.2208    0.0000 H   0  0  0  0  0  0  0  0  0  0  0  0
    8.8045    2.9758    0.0000 H   0  0  0  0  0  0  0  0  0  0  0  0
    6.3815   -0.5205    0.0000 H   0  0  0  0  0  0  0  0  0  0  0  0
    4.8709   -3.4145    0.0000 H   0  0  0  0  0  0  0  0  0  0  0  0
    2.8660   -0.4005    0.0000 H   0  0  0  0  0  0  0  0  0  0  0  0
    2.8660   -3.6405    0.0000 H   0  0  0  0  0  0  0  0  0  0  0  0
    1.4631   -1.2105    0.0000 H   0  0  0  0  0  0  0  0  0  0  0  0
    1.4631   -2.8305    0.0000 H   0  0  0  0  0  0  0  0  0  0  0  0
  1 15  1  0  0  0  0
  2 15  1  0  0  0  0
  3 15  1  0  0  0  0
  4 16  2  0  0  0  0
  5 11  1  0  0  0  0
  5 12  1  0  0  0  0
  5 14  1  0  0  0  0
  6 13  1  0  0  0  0
  6 16  1  0  0  0  0
  6 35  1  0  0  0  0
  7  8  1  0  0  0  0
  7 17  2  0  0  0  0
  8 19  1  0  0  0  0
  8 36  1  0  0  0  0
  9 10  1  0  0  0  0
  9 11  1  0  0  0  0
  9 13  1  0  0  0  0
  9 24  1  0  0  0  0
 10 12  1  0  0  0  0
 10 25  1  0  0  0  0
 10 26  1  0  0  0  0
 11 27  1  0  0  0  0
 11 28  1  0  0  0  0
 12 29  1  0  0  0  0
 12 30  1  0  0  0  0
 13 31  1  0  0  0  0
 13 32  1  0  0  0  0
 14 15  1  0  0  0  0
 14 33  1  0  0  0  0
 14 34  1  0  0  0  0
 16 17  1  0  0  0  0
 17 18  1  0  0  0  0
 18 19  1  0  0  0  0
 18 20  2  0  0  0  0
 19 21  2  0  0  0  0
 20 22  1  0  0  0  0
 20 37  1  0  0  0  0
 21 23  1  0  0  0  0
 21 38  1  0  0  0  0
 22 23  2  0  0  0  0
 22 39  1  0  0  0  0
 23 40  1  0  0  0  0
M  END
> <PUBCHEM_COMPOUND_CID>
51090928

> <PUBCHEM_COMPOUND_CANONICALIZED>
1

> <PUBCHEM_CACTVS_COMPLEXITY>
431

> <PUBCHEM_CACTVS_HBOND_ACCEPTOR>
6

> <PUBCHEM_CACTVS_HBOND_DONOR>
2

> <PUBCHEM_CACTVS_ROTATABLE_BOND>
4

> <PUBCHEM_CACTVS_SUBSKEYS>
AAADceBzoYAAAAAAAAAAAAAAAAAAAWLAAAAwAAAAAAAAAFgB8AAAHwAYAAAADQjBnhQwwPPjAACqAyVyUACSBAAmAgAYuaG4ZNgIYLKA1dGUpQhgngCIyQcciICOAAAAAAACAAAAAAAAAAQAAAAAAAAAAA==

> <PUBCHEM_IUPAC_OPENEYE_NAME>
N-[[1-(2,2,2-trifluoroethyl)pyrrolidin-3-yl]methyl]-1H-indazole-3-carboxamide

> <PUBCHEM_IUPAC_CAS_NAME>
N-[[1-(2,2,2-trifluoroethyl)-3-pyrrolidinyl]methyl]-1H-indazole-3-carboxamide

> <PUBCHEM_IUPAC_NAME>
N-[[1-(2,2,2-trifluoroethyl)pyrrolidin-3-yl]methyl]-1H-indazole-3-carboxamide

> <PUBCHEM_IUPAC_SYSTEMATIC_NAME>
N-[[1-[2,2,2-tris(fluoranyl)ethyl]pyrrolidin-3-yl]methyl]-1H-indazole-3-carboxamide

> <PUBCHEM_IUPAC_TRADITIONAL_NAME>
N-[[1-(2,2,2-trifluoroethyl)pyrrolidin-3-yl]methyl]-1H-indazole-3-carboxamide

> <PUBCHEM_IUPAC_INCHI>
InChI=1S/C15H17F3N4O/c16-15(17,18)9-22-6-5-10(8-22)7-19-14(23)13-11-3-1-2-4-12(11)20-21-13/h1-4,10H,5-9H2,(H,19,23)(H,20,21)

> <PUBCHEM_IUPAC_INCHIKEY>
SJZXQMBYABBACK-UHFFFAOYSA-N

> <PUBCHEM_XLOGP3_AA>
2.7

> <PUBCHEM_EXACT_MASS>
326.135446

> <PUBCHEM_MOLECULAR_FORMULA>
C15H17F3N4O

> <PUBCHEM_MOLECULAR_WEIGHT>
326.31689

> <PUBCHEM_OPENEYE_CAN_SMILES>
C1CN(CC1CNC(=O)C2=NNC3=CC=CC=C32)CC(F)(F)F

> <PUBCHEM_OPENEYE_ISO_SMILES>
C1CN(CC1CNC(=O)C2=NNC3=CC=CC=C32)CC(F)(F)F

> <PUBCHEM_CACTVS_TPSA>
61

> <PUBCHEM_MONOISOTOPIC_WEIGHT>
326.135446

> <PUBCHEM_TOTAL_CHARGE>
0

> <PUBCHEM_HEAVY_ATOM_COUNT>
23

> <PUBCHEM_ATOM_DEF_STEREO_COUNT>
0

> <PUBCHEM_ATOM_UDEF_STEREO_COUNT>
1

> <PUBCHEM_BOND_DEF_STEREO_COUNT>
0

> <PUBCHEM_BOND_UDEF_STEREO_COUNT>
0

> <PUBCHEM_ISOTOPIC_ATOM_COUNT>
0

> <PUBCHEM_COMPONENT_COUNT>
1

> <PUBCHEM_CACTVS_TAUTO_COUNT>
7

> <PUBCHEM_COORDINATE_TYPE>
1
5
255

> <PUBCHEM_BONDANNOTATIONS>
17  18  8
18  19  8
18  20  8
19  21  8
20  22  8
21  23  8
22  23  8
7  17  8
7  8  8
8  19  8
9  13  3

$$$$

