17396630
  -OEChem-06241222573D

 42 43  0     0  0  0  0  0  0999 V2000
   -0.4447    1.8704   -1.3828 O   0  0  0  0  0  0  0  0  0  0  0  0
   -6.5105   -1.5651    0.4130 O   0  0  0  0  0  0  0  0  0  0  0  0
    0.5281    1.6042    0.7063 N   0  0  0  0  0  0  0  0  0  0  0  0
   -5.1627    0.0467   -0.6568 N   0  0  0  0  0  0  0  0  0  0  0  0
    2.8579    1.6422   -0.1049 C   0  0  0  0  0  0  0  0  0  0  0  0
    3.3768    0.5232    0.8080 C   0  0  0  0  0  0  0  0  0  0  0  0
    1.6798    2.4291    0.4660 C   0  0  0  0  0  0  0  0  0  0  0  0
    4.5627   -0.2209    0.2478 C   0  0  0  0  0  0  0  0  0  0  0  0
   -0.4552    1.3891   -0.2528 C   0  0  0  0  0  0  0  0  0  0  0  0
    4.3655   -1.3492   -0.5483 C   0  0  0  0  0  0  0  0  0  0  0  0
    5.8569    0.2189    0.5259 C   0  0  0  0  0  0  0  0  0  0  0  0
   -1.5961    0.5320    0.1603 C   0  0  0  0  0  0  0  0  0  0  0  0
   -2.8437    0.6921   -0.4426 C   0  0  0  0  0  0  0  0  0  0  0  0
   -3.9146   -0.1126   -0.0537 C   0  0  0  0  0  0  0  0  0  0  0  0
    5.4623   -2.0375   -1.0665 C   0  0  0  0  0  0  0  0  0  0  0  0
    6.9538   -0.4696    0.0076 C   0  0  0  0  0  0  0  0  0  0  0  0
   -1.4194   -0.4327    1.1522 C   0  0  0  0  0  0  0  0  0  0  0  0
    6.7566   -1.5978   -0.7886 C   0  0  0  0  0  0  0  0  0  0  0  0
   -3.7379   -1.0773    0.9381 C   0  0  0  0  0  0  0  0  0  0  0  0
   -2.4904   -1.2373    1.5412 C   0  0  0  0  0  0  0  0  0  0  0  0
   -6.3439   -0.6621   -0.4006 C   0  0  0  0  0  0  0  0  0  0  0  0
   -7.4813   -0.1856   -1.2689 C   0  0  0  0  0  0  0  0  0  0  0  0
    2.5691    1.2103   -1.0721 H   0  0  0  0  0  0  0  0  0  0  0  0
    3.6745    2.3451   -0.3131 H   0  0  0  0  0  0  0  0  0  0  0  0
    2.5738   -0.1964    1.0130 H   0  0  0  0  0  0  0  0  0  0  0  0
    3.6464    0.9443    1.7855 H   0  0  0  0  0  0  0  0  0  0  0  0
    1.4073    3.2351   -0.2241 H   0  0  0  0  0  0  0  0  0  0  0  0
    1.9587    2.8867    1.4211 H   0  0  0  0  0  0  0  0  0  0  0  0
    0.4297    1.2231    1.6410 H   0  0  0  0  0  0  0  0  0  0  0  0
    3.3619   -1.7002   -0.7734 H   0  0  0  0  0  0  0  0  0  0  0  0
    6.0233    1.0976    1.1432 H   0  0  0  0  0  0  0  0  0  0  0  0
   -2.9883    1.4460   -1.2133 H   0  0  0  0  0  0  0  0  0  0  0  0
    5.3087   -2.9156   -1.6869 H   0  0  0  0  0  0  0  0  0  0  0  0
    7.9615   -0.1270    0.2235 H   0  0  0  0  0  0  0  0  0  0  0  0
   -0.4581   -0.6121    1.6243 H   0  0  0  0  0  0  0  0  0  0  0  0
    7.6106   -2.1337   -1.1924 H   0  0  0  0  0  0  0  0  0  0  0  0
   -4.5174   -1.7382    1.2904 H   0  0  0  0  0  0  0  0  0  0  0  0
   -2.3502   -1.9934    2.3084 H   0  0  0  0  0  0  0  0  0  0  0  0
   -5.2109    0.7704   -1.3711 H   0  0  0  0  0  0  0  0  0  0  0  0
   -8.3775   -0.7775   -1.0636 H   0  0  0  0  0  0  0  0  0  0  0  0
   -7.6929    0.8660   -1.0560 H   0  0  0  0  0  0  0  0  0  0  0  0
   -7.2158   -0.2992   -2.3238 H   0  0  0  0  0  0  0  0  0  0  0  0
  1  9  2  0  0  0  0
  2 21  2  0  0  0  0
  3  7  1  0  0  0  0
  3  9  1  0  0  0  0
  3 29  1  0  0  0  0
  4 14  1  0  0  0  0
  4 21  1  0  0  0  0
  4 39  1  0  0  0  0
  5  6  1  0  0  0  0
  5  7  1  0  0  0  0
  5 23  1  0  0  0  0
  5 24  1  0  0  0  0
  6  8  1  0  0  0  0
  6 25  1  0  0  0  0
  6 26  1  0  0  0  0
  7 27  1  0  0  0  0
  7 28  1  0  0  0  0
  8 10  2  0  0  0  0
  8 11  1  0  0  0  0
  9 12  1  0  0  0  0
 10 15  1  0  0  0  0
 10 30  1  0  0  0  0
 11 16  2  0  0  0  0
 11 31  1  0  0  0  0
 12 13  2  0  0  0  0
 12 17  1  0  0  0  0
 13 14  1  0  0  0  0
 13 32  1  0  0  0  0
 14 19  2  0  0  0  0
 15 18  2  0  0  0  0
 15 33  1  0  0  0  0
 16 18  1  0  0  0  0
 16 34  1  0  0  0  0
 17 20  2  0  0  0  0
 17 35  1  0  0  0  0
 18 36  1  0  0  0  0
 19 20  1  0  0  0  0
 19 37  1  0  0  0  0
 20 38  1  0  0  0  0
 21 22  1  0  0  0  0
 22 40  1  0  0  0  0
 22 41  1  0  0  0  0
 22 42  1  0  0  0  0
M  END
> <PUBCHEM_COMPOUND_CID>
17396630

> <PUBCHEM_CONFORMER_RMSD>
0.8

> <PUBCHEM_CONFORMER_DIVERSEORDER>
2
123
59
196
130
219
82
92
136
195
30
114
166
172
131
110
182
208
124
100
28
26
135
165
134
137
17
8
217
152
89
118
178
133
171
204
50
121
167
113
57
156
96
127
125
51
106
27
132
161
18
129
179
220
4
214
53
88
170
193
197
75
7
215
55
85
84
211
103
177
99
77
149
47
119
147
150
190
93
97
1
139
122
218
176
183
90
210
68
126
203
158
54
115
34
146
120
148
157
140
200
48
109
80
104
19
162
159
192
36
60
39
144
184
32
40
94
41
98
212
74
83
128
185
24
44
202
56
174
209
101
198
69
207
141
63
52
186
188
142
87
6
79
164
108
37
33
175
143
155
206
43
49
201
189
66
181
61
205
31
42
12
65
216
153
187
22
154
111
29
35
163
160
95
91
102
105
13
213
81
78
3
194
62
117
112
168
173
70
25
86
9
138
73
38
191
45
14
199
46
145
116
5
23
15
20
169
11
21
180
72
107
76
71
67
10
64
151
16
58

> <PUBCHEM_MMFF94_PARTIAL_CHARGES>
32
1 -0.57
10 -0.15
11 -0.15
12 0.09
13 -0.15
14 0.12
15 -0.15
16 -0.15
17 -0.15
18 -0.15
19 -0.15
2 -0.57
20 -0.15
21 0.57
22 0.06
29 0.37
3 -0.73
30 0.15
31 0.15
32 0.15
33 0.15
34 0.15
35 0.15
36 0.15
37 0.15
38 0.15
39 0.37
4 -0.55
6 0.14
7 0.3
8 -0.14
9 0.54

> <PUBCHEM_EFFECTIVE_ROTOR_COUNT>
8

> <PUBCHEM_PHARMACOPHORE_FEATURES>
6
1 1 acceptor
1 2 acceptor
1 3 donor
1 4 donor
6 12 13 14 17 19 20 rings
6 8 10 11 15 16 18 rings

> <PUBCHEM_HEAVY_ATOM_COUNT>
22

> <PUBCHEM_ATOM_DEF_STEREO_COUNT>
0

> <PUBCHEM_ATOM_UDEF_STEREO_COUNT>
0

> <PUBCHEM_BOND_DEF_STEREO_COUNT>
0

> <PUBCHEM_BOND_UDEF_STEREO_COUNT>
0

> <PUBCHEM_ISOTOPIC_ATOM_COUNT>
0

> <PUBCHEM_COMPONENT_COUNT>
1

> <PUBCHEM_CACTVS_TAUTO_COUNT>
4

> <PUBCHEM_CONFORMER_ID>
0109739600000002

> <PUBCHEM_MMFF94_ENERGY>
54.3574

> <PUBCHEM_FEATURE_SELFOVERLAP>
30.446

> <PUBCHEM_SHAPE_FINGERPRINT>
10 15 6122495818287756746
106641 1 16443072673316532136
10669705 162 18335982081673969735
10917259 69 18120940770546961665
11724838 91 7565337643854396521
11796584 16 17989207006183894618
12011746 2 18273497874901508875
12166972 35 17603587408871181384
12516196 113 18259705601485811456
12596602 18 16153709821526157538
12633257 1 14418143919932411760
12760667 363 18408036333847708505
12895836 83 13542458739612921297
12954195 1 18271249421532433637
13402501 40 18411415125028226906
13533116 47 17967535631995388712
13544592 145 18202004283189614857
13668630 136 18409168796765291975
13685833 64 18333732420701152552
13914758 101 17749384897667937745
14202776 33 15123240991524075135
14216079 64 18408042930917416519
14251764 18 17603583010740280176
14598715 104 7493015016344189643
14617045 38 17846500348147994451
14931854 50 17988921223661421570
15048467 5 11527953365682898325
15183329 4 17846502551540076497
15188451 53 16877943845153233897
15475509 8 17846781827963277149
15510800 12 18337658789741484438
15690457 1 17313111830444938887
1768 124 17313104159427854118
17834072 8 17846501422132281201
19784866 240 18408036312372962848
20374829 77 18060139825638661176
20403669 9 18412261761950496626
21150785 3 13973965385902319195
21267235 1 18201998803465174001
21279426 13 18272098197280117805
21307412 95 18272926124713501115
21315764 119 16415480480219906874
21623969 137 18040151847176538238
221357 26 18413109476683133080
2215653 11 18342178855892860595
23559900 14 18201158728583162329
2838139 119 10231757743576602898
28498 318 18334861628144432373
2916195 48 8358264739423097469
3004659 81 17917994958305408792
3014063 24 17821730546029063838
3472631 163 12175614079948175336
437815 12 18411136935253117769
445580 126 11095887034538137196
46194498 28 18131072606729217396
465052 167 18187642475197612532
5207 123 18412260636062624404
6138700 20 18343303678011176123
9980921 221 18200591531334672573

> <PUBCHEM_SHAPE_MULTIPOLES>
431.05
20.43
2.03
1.18
2.68
0.5
-0.06
-11.88
5.18
-1.83
0.18
0.72
-0.19
1.67

> <PUBCHEM_SHAPE_SELFOVERLAP>
901.485

> <PUBCHEM_SHAPE_VOLUME>
242.1

> <PUBCHEM_COORDINATE_TYPE>
2
5
10

$$$$

