9577
  -OEChem-06261203503D

 27 28  0     1  0  0  0  0  0999 V2000
    2.5530    2.7040   -0.5745 F   0  0  0  0  0  0  0  0  0  0  0  0
   -1.5719    0.6462    1.8131 O   0  0  0  0  0  0  0  0  0  0  0  0
   -2.3313    2.1401    0.2758 O   0  0  0  0  0  0  0  0  0  0  0  0
    1.1096   -2.4728    0.3876 N   0  0  0  0  0  0  0  0  0  0  0  0
   -4.0346    0.1580   -0.6459 N   0  0  0  0  0  0  0  0  0  0  0  0
   -0.4869   -1.2185   -0.5096 C   0  0  0  0  0  0  0  0  0  0  0  0
   -1.7835   -0.7899   -1.0729 C   0  0  0  0  0  0  0  0  0  0  0  0
    0.6719   -0.4101   -0.3409 C   0  0  0  0  0  0  0  0  0  0  0  0
   -2.7755   -0.2448   -0.0162 C   0  0  1  0  0  0  0  0  0  0  0  0
    1.6587   -1.2210    0.2236 C   0  0  0  0  0  0  0  0  0  0  0  0
   -0.1868   -2.4811   -0.0527 C   0  0  0  0  0  0  0  0  0  0  0  0
    0.9769    0.9379   -0.6152 C   0  0  0  0  0  0  0  0  0  0  0  0
    2.9405   -0.7495    0.5288 C   0  0  0  0  0  0  0  0  0  0  0  0
    2.2549    1.4235   -0.3153 C   0  0  0  0  0  0  0  0  0  0  0  0
   -2.2149    0.9870    0.6663 C   0  0  0  0  0  0  0  0  0  0  0  0
    3.2201    0.5910    0.2479 C   0  0  0  0  0  0  0  0  0  0  0  0
   -1.6088   -0.0260   -1.8430 H   0  0  0  0  0  0  0  0  0  0  0  0
   -2.2477   -1.6381   -1.5945 H   0  0  0  0  0  0  0  0  0  0  0  0
   -2.9951   -1.0086    0.7393 H   0  0  0  0  0  0  0  0  0  0  0  0
   -0.7778   -3.3849    0.0000 H   0  0  0  0  0  0  0  0  0  0  0  0
    1.5941   -3.2698    0.7770 H   0  0  0  0  0  0  0  0  0  0  0  0
    0.2408    1.6013   -1.0596 H   0  0  0  0  0  0  0  0  0  0  0  0
    3.6925   -1.3968    0.9672 H   0  0  0  0  0  0  0  0  0  0  0  0
   -4.7054    0.4278    0.0729 H   0  0  0  0  0  0  0  0  0  0  0  0
   -4.4437   -0.6404   -1.1299 H   0  0  0  0  0  0  0  0  0  0  0  0
    4.2062    0.9891    0.4726 H   0  0  0  0  0  0  0  0  0  0  0  0
   -1.2070    1.4310    2.2746 H   0  0  0  0  0  0  0  0  0  0  0  0
  1 14  1  0  0  0  0
  2 15  1  0  0  0  0
  2 27  1  0  0  0  0
  3 15  2  0  0  0  0
  4 10  1  0  0  0  0
  4 11  1  0  0  0  0
  4 21  1  0  0  0  0
  5  9  1  0  0  0  0
  5 24  1  0  0  0  0
  5 25  1  0  0  0  0
  6  7  1  0  0  0  0
  6  8  1  0  0  0  0
  6 11  2  0  0  0  0
  7  9  1  0  0  0  0
  7 17  1  0  0  0  0
  7 18  1  0  0  0  0
  8 10  2  0  0  0  0
  8 12  1  0  0  0  0
  9 15  1  0  0  0  0
  9 19  1  0  0  0  0
 10 13  1  0  0  0  0
 11 20  1  0  0  0  0
 12 14  2  0  0  0  0
 12 22  1  0  0  0  0
 13 16  2  0  0  0  0
 13 23  1  0  0  0  0
 14 16  1  0  0  0  0
 16 26  1  0  0  0  0
M  END
> <PUBCHEM_COMPOUND_CID>
9577

> <PUBCHEM_CONFORMER_RMSD>
0.6

> <PUBCHEM_CONFORMER_DIVERSEORDER>
2
20
21
6
7
26
17
16
8
19
24
10
25
5
22
13
15
9
14
18
12
3
4
1
11
23

> <PUBCHEM_MMFF94_PARTIAL_CHARGES>
23
1 -0.19
10 -0.15
11 -0.3
12 -0.15
13 -0.15
14 0.19
15 0.66
16 -0.15
2 -0.65
20 0.15
21 0.27
22 0.15
23 0.15
24 0.36
25 0.36
26 0.15
27 0.5
3 -0.57
4 0.03
5 -0.99
6 -0.18
7 0.18
9 0.33

> <PUBCHEM_EFFECTIVE_ROTOR_COUNT>
3

> <PUBCHEM_PHARMACOPHORE_FEATURES>
9
1 2 acceptor
1 3 acceptor
1 4 cation
1 4 donor
1 5 cation
1 5 donor
3 2 3 15 anion
5 4 6 8 10 11 rings
6 8 10 12 13 14 16 rings

> <PUBCHEM_HEAVY_ATOM_COUNT>
16

> <PUBCHEM_ATOM_DEF_STEREO_COUNT>
0

> <PUBCHEM_ATOM_UDEF_STEREO_COUNT>
1

> <PUBCHEM_BOND_DEF_STEREO_COUNT>
0

> <PUBCHEM_BOND_UDEF_STEREO_COUNT>
0

> <PUBCHEM_ISOTOPIC_ATOM_COUNT>
0

> <PUBCHEM_COMPONENT_COUNT>
1

> <PUBCHEM_CACTVS_TAUTO_COUNT>
1

> <PUBCHEM_CONFORMER_ID>
0000256900000002

> <PUBCHEM_MMFF94_ENERGY>
20.1671

> <PUBCHEM_FEATURE_SELFOVERLAP>
45.818

> <PUBCHEM_SHAPE_FINGERPRINT>
11471102 22 18131344245623671018
11640471 11 17750791249885070489
12491281 212 18341326683152969490
12696612 119 18267300009396648206
13618510 140 18411978031578028316
14787075 74 18121500155439676215
15490181 8 18409159996229745942
15775835 57 18259699016952761017
16945 1 18412257367587250374
192875 21 18338534004932854577
20510252 161 17762051043559310866
20559304 39 18336829783242128998
21130352 189 17546724215146548503
21524375 3 18333730191317837318
22094290 62 18411419497119772158
23402539 116 17968951776932953167
23557571 272 16589724339690615294
2748010 2 18197209261546784070
305870 269 18339078297537792518
353137 74 18260830363025652481
474 4 18412827975409019849
526903 126 17829611656198337216
537710 114 18187087226595182825
6333272 397 18411981338739730443
7364860 26 18115587204568478910
7832392 63 17976256069147454689

> <PUBCHEM_SHAPE_MULTIPOLES>
300.3
5.21
2.48
0.99
1.58
0.07
0.21
-2.04
0.02
-0.86
-0.04
0.38
-0.13
-0.81

> <PUBCHEM_SHAPE_SELFOVERLAP>
650.46

> <PUBCHEM_SHAPE_VOLUME>
165.2

> <PUBCHEM_COORDINATE_TYPE>
2
5
10

$$$$

