7253
  -OEChem-06261201573D

 17 17  0     0  0  0  0  0  0999 V2000
   -2.4432    0.9327   -0.0007 O   0  0  0  0  0  0  0  0  0  0  0  0
    2.8917   -0.4576    0.0000 O   0  0  0  0  0  0  0  0  0  0  0  0
   -0.7537   -0.7675   -0.0001 C   0  0  0  0  0  0  0  0  0  0  0  0
   -1.1281    0.5762    0.0005 C   0  0  0  0  0  0  0  0  0  0  0  0
    0.5972   -1.1150   -0.0003 C   0  0  0  0  0  0  0  0  0  0  0  0
    1.5737   -0.1189   -0.0002 C   0  0  0  0  0  0  0  0  0  0  0  0
   -0.1517    1.5723    0.0004 C   0  0  0  0  0  0  0  0  0  0  0  0
   -1.7852   -1.8467    0.0004 C   0  0  0  0  0  0  0  0  0  0  0  0
    1.1992    1.2247    0.0001 C   0  0  0  0  0  0  0  0  0  0  0  0
    0.8928   -2.1615   -0.0004 H   0  0  0  0  0  0  0  0  0  0  0  0
   -0.4291    2.6230    0.0003 H   0  0  0  0  0  0  0  0  0  0  0  0
   -2.4139   -1.7714    0.8938 H   0  0  0  0  0  0  0  0  0  0  0  0
   -2.4168   -1.7695   -0.8907 H   0  0  0  0  0  0  0  0  0  0  0  0
   -1.3343   -2.8449   -0.0016 H   0  0  0  0  0  0  0  0  0  0  0  0
    1.9552    2.0050    0.0001 H   0  0  0  0  0  0  0  0  0  0  0  0
   -2.5089    1.9031   -0.0006 H   0  0  0  0  0  0  0  0  0  0  0  0
    2.9686   -1.4272   -0.0001 H   0  0  0  0  0  0  0  0  0  0  0  0
  1  4  1  0  0  0  0
  1 16  1  0  0  0  0
  2  6  1  0  0  0  0
  2 17  1  0  0  0  0
  3  4  2  0  0  0  0
  3  5  1  0  0  0  0
  3  8  1  0  0  0  0
  4  7  1  0  0  0  0
  5  6  2  0  0  0  0
  5 10  1  0  0  0  0
  6  9  1  0  0  0  0
  7  9  2  0  0  0  0
  7 11  1  0  0  0  0
  8 12  1  0  0  0  0
  8 13  1  0  0  0  0
  8 14  1  0  0  0  0
  9 15  1  0  0  0  0
M  END
> <PUBCHEM_COMPOUND_CID>
7253

> <PUBCHEM_CONFORMER_RMSD>
0.4

> <PUBCHEM_CONFORMER_DIVERSEORDER>
1

> <PUBCHEM_MMFF94_PARTIAL_CHARGES>
14
1 -0.53
10 0.15
11 0.15
15 0.15
16 0.45
17 0.45
2 -0.53
3 -0.14
4 0.08
5 -0.15
6 0.08
7 -0.15
8 0.14
9 -0.15

> <PUBCHEM_EFFECTIVE_ROTOR_COUNT>
0

> <PUBCHEM_PHARMACOPHORE_FEATURES>
3
1 1 donor
1 2 donor
6 3 4 5 6 7 9 rings

> <PUBCHEM_HEAVY_ATOM_COUNT>
9

> <PUBCHEM_ATOM_DEF_STEREO_COUNT>
0

> <PUBCHEM_ATOM_UDEF_STEREO_COUNT>
0

> <PUBCHEM_BOND_DEF_STEREO_COUNT>
0

> <PUBCHEM_BOND_UDEF_STEREO_COUNT>
0

> <PUBCHEM_ISOTOPIC_ATOM_COUNT>
0

> <PUBCHEM_COMPONENT_COUNT>
1

> <PUBCHEM_CACTVS_TAUTO_COUNT>
13

> <PUBCHEM_CONFORMER_ID>
00001C5500000001

> <PUBCHEM_MMFF94_ENERGY>
20.5608

> <PUBCHEM_FEATURE_SELFOVERLAP>
15.223

> <PUBCHEM_SHAPE_FINGERPRINT>
16945 1 18338797921993510404
18185500 45 18413390946942850682
21040471 1 18338516472733862497
23235685 24 18336833116121036833
23402655 69 17905909307272509901
23552423 10 18200875063367679358
2748010 2 18337956666759812020
29004967 10 18200302350711124736
5084963 1 18116146679903660322

> <PUBCHEM_SHAPE_MULTIPOLES>
173.48
2.93
1.81
0.6
0.55
0.05
0
-0.56
0
-0.58
0
-0.01
0
0

> <PUBCHEM_SHAPE_SELFOVERLAP>
361.885

> <PUBCHEM_SHAPE_VOLUME>
99.7

> <PUBCHEM_COORDINATE_TYPE>
2
5
10

$$$$

