17396105
  -OEChem-06241222543D

 52 54  0     0  0  0  0  0  0999 V2000
    0.4535   -3.3035    1.5364 Br  0  0  0  0  0  0  0  0  0  0  0  0
    5.5987   -1.0597   -1.5514 Cl  0  0  0  0  0  0  0  0  0  0  0  0
   -7.7740   -0.4533    0.4042 O   0  0  0  0  0  0  0  0  0  0  0  0
    1.1080    2.1345    0.8915 O   0  0  0  0  0  0  0  0  0  0  0  0
    5.0693    0.3224    1.6717 O   0  0  0  0  0  0  0  0  0  0  0  0
   -5.0700    0.1740   -0.0352 N   0  0  0  0  0  0  0  0  0  0  0  0
    3.7181    1.5636    0.2203 N   0  0  0  0  0  0  0  0  0  0  0  0
    0.3902    0.8790   -0.9657 N   0  0  0  0  0  0  0  0  0  0  0  0
   -5.4806   -0.5249    1.1903 C   0  0  0  0  0  0  0  0  0  0  0  0
   -5.9941    0.0450   -1.1672 C   0  0  0  0  0  0  0  0  0  0  0  0
   -6.9279   -0.1781    1.5204 C   0  0  0  0  0  0  0  0  0  0  0  0
   -7.4143    0.3608   -0.7113 C   0  0  0  0  0  0  0  0  0  0  0  0
   -3.7021    0.3500   -0.2681 C   0  0  0  0  0  0  0  0  0  0  0  0
   -2.9260    1.0655    0.6440 C   0  0  0  0  0  0  0  0  0  0  0  0
   -3.1144   -0.1886   -1.4128 C   0  0  0  0  0  0  0  0  0  0  0  0
   -0.9741    0.7027   -0.7331 C   0  0  0  0  0  0  0  0  0  0  0  0
   -1.5619    1.2416    0.4115 C   0  0  0  0  0  0  0  0  0  0  0  0
   -1.7504   -0.0121   -1.6453 C   0  0  0  0  0  0  0  0  0  0  0  0
    2.7083    1.5111   -0.7960 C   0  0  0  0  0  0  0  0  0  0  0  0
    4.1908    2.9023    0.6060 C   0  0  0  0  0  0  0  0  0  0  0  0
    1.3259    1.5616   -0.1710 C   0  0  0  0  0  0  0  0  0  0  0  0
    4.2060    0.3728    0.7963 C   0  0  0  0  0  0  0  0  0  0  0  0
    3.6510   -0.9163    0.3542 C   0  0  0  0  0  0  0  0  0  0  0  0
    5.3703    3.3388   -0.2381 C   0  0  0  0  0  0  0  0  0  0  0  0
    2.5307   -1.4124    1.0206 C   0  0  0  0  0  0  0  0  0  0  0  0
    4.2122   -1.6382   -0.6994 C   0  0  0  0  0  0  0  0  0  0  0  0
    1.9715   -2.6304    0.6339 C   0  0  0  0  0  0  0  0  0  0  0  0
    3.6529   -2.8561   -1.0867 C   0  0  0  0  0  0  0  0  0  0  0  0
    2.5325   -3.3522   -0.4198 C   0  0  0  0  0  0  0  0  0  0  0  0
   -5.3867   -1.6050    1.0225 H   0  0  0  0  0  0  0  0  0  0  0  0
   -4.8516   -0.2633    2.0480 H   0  0  0  0  0  0  0  0  0  0  0  0
   -5.7265    0.7304   -1.9800 H   0  0  0  0  0  0  0  0  0  0  0  0
   -5.9573   -0.9833   -1.5476 H   0  0  0  0  0  0  0  0  0  0  0  0
   -7.2744   -0.7852    2.3626 H   0  0  0  0  0  0  0  0  0  0  0  0
   -7.0313    0.8759    1.8055 H   0  0  0  0  0  0  0  0  0  0  0  0
   -7.5209    1.4182   -0.4399 H   0  0  0  0  0  0  0  0  0  0  0  0
   -8.1212    0.1541   -1.5211 H   0  0  0  0  0  0  0  0  0  0  0  0
   -3.3695    1.5041    1.5344 H   0  0  0  0  0  0  0  0  0  0  0  0
   -3.6854   -0.7626   -2.1369 H   0  0  0  0  0  0  0  0  0  0  0  0
   -1.0284    1.8087    1.1611 H   0  0  0  0  0  0  0  0  0  0  0  0
   -1.3045   -0.4403   -2.5396 H   0  0  0  0  0  0  0  0  0  0  0  0
    2.8175    0.6260   -1.4266 H   0  0  0  0  0  0  0  0  0  0  0  0
    2.8087    2.3772   -1.4607 H   0  0  0  0  0  0  0  0  0  0  0  0
    0.7355    0.4584   -1.8257 H   0  0  0  0  0  0  0  0  0  0  0  0
    4.5029    2.8605    1.6553 H   0  0  0  0  0  0  0  0  0  0  0  0
    3.3670    3.6197    0.5310 H   0  0  0  0  0  0  0  0  0  0  0  0
    5.7220    4.3255    0.0783 H   0  0  0  0  0  0  0  0  0  0  0  0
    5.0995    3.3959   -1.2973 H   0  0  0  0  0  0  0  0  0  0  0  0
    6.2026    2.6330   -0.1463 H   0  0  0  0  0  0  0  0  0  0  0  0
    2.0959   -0.8478    1.8429 H   0  0  0  0  0  0  0  0  0  0  0  0
    4.0778   -3.4305   -1.9059 H   0  0  0  0  0  0  0  0  0  0  0  0
    2.1086   -4.3025   -0.7338 H   0  0  0  0  0  0  0  0  0  0  0  0
  1 27  1  0  0  0  0
  2 26  1  0  0  0  0
  3 11  1  0  0  0  0
  3 12  1  0  0  0  0
  4 21  2  0  0  0  0
  5 22  2  0  0  0  0
  6  9  1  0  0  0  0
  6 10  1  0  0  0  0
  6 13  1  0  0  0  0
  7 19  1  0  0  0  0
  7 20  1  0  0  0  0
  7 22  1  0  0  0  0
  8 16  1  0  0  0  0
  8 21  1  0  0  0  0
  8 44  1  0  0  0  0
  9 11  1  0  0  0  0
  9 30  1  0  0  0  0
  9 31  1  0  0  0  0
 10 12  1  0  0  0  0
 10 32  1  0  0  0  0
 10 33  1  0  0  0  0
 11 34  1  0  0  0  0
 11 35  1  0  0  0  0
 12 36  1  0  0  0  0
 12 37  1  0  0  0  0
 13 14  2  0  0  0  0
 13 15  1  0  0  0  0
 14 17  1  0  0  0  0
 14 38  1  0  0  0  0
 15 18  2  0  0  0  0
 15 39  1  0  0  0  0
 16 17  2  0  0  0  0
 16 18  1  0  0  0  0
 17 40  1  0  0  0  0
 18 41  1  0  0  0  0
 19 21  1  0  0  0  0
 19 42  1  0  0  0  0
 19 43  1  0  0  0  0
 20 24  1  0  0  0  0
 20 45  1  0  0  0  0
 20 46  1  0  0  0  0
 22 23  1  0  0  0  0
 23 25  1  0  0  0  0
 23 26  2  0  0  0  0
 24 47  1  0  0  0  0
 24 48  1  0  0  0  0
 24 49  1  0  0  0  0
 25 27  2  0  0  0  0
 25 50  1  0  0  0  0
 26 28  1  0  0  0  0
 27 29  1  0  0  0  0
 28 29  2  0  0  0  0
 28 51  1  0  0  0  0
 29 52  1  0  0  0  0
M  END
> <PUBCHEM_COMPOUND_CID>
17396105

> <PUBCHEM_CONFORMER_RMSD>
1

> <PUBCHEM_CONFORMER_DIVERSEORDER>
1
20
114
128
34
58
61
117
155
153
5
141
137
87
82
102
140
144
132
86
104
118
129
62
130
83
84
111
71
90
73
98
108
148
122
136
134
159
150
105
125
29
133
41
54
109
46
127
57
147
55
94
121
50
48
9
157
113
19
152
66
120
151
13
39
25
107
7
75
89
103
12
52
45
30
22
63
64
93
154
116
101
119
100
65
33
28
145
77
26
158
138
80
6
42
23
43
56
53
96
32
68
51
18
31
85
15
11
69
139
74
60
126
88
8
36
79
78
67
81
16
27
106
44
99
72
142
123
156
14
115
24
47
131
49
38
95
149
17
146
97
91
110
92
70
76
4
112
135
10
3
40
37
35
2
124
143
21
59

> <PUBCHEM_MMFF94_PARTIAL_CHARGES>
36
1 -0.11
10 0.37
11 0.28
12 0.28
13 0.1
14 -0.15
15 -0.15
16 0.12
17 -0.15
18 -0.15
19 0.36
2 -0.18
20 0.3
21 0.57
22 0.54
23 0.09
25 -0.15
26 0.18
27 0.11
28 -0.15
29 -0.15
3 -0.56
38 0.15
39 0.15
4 -0.57
40 0.15
41 0.15
44 0.37
5 -0.57
50 0.15
51 0.15
52 0.15
6 -0.84
7 -0.66
8 -0.55
9 0.37

> <PUBCHEM_EFFECTIVE_ROTOR_COUNT>
9.2

> <PUBCHEM_PHARMACOPHORE_FEATURES>
9
1 1 hydrophobe
1 3 acceptor
1 4 acceptor
1 5 acceptor
1 6 cation
1 8 donor
6 13 14 15 16 17 18 rings
6 23 25 26 27 28 29 rings
6 3 6 9 10 11 12 rings

> <PUBCHEM_HEAVY_ATOM_COUNT>
29

> <PUBCHEM_ATOM_DEF_STEREO_COUNT>
0

> <PUBCHEM_ATOM_UDEF_STEREO_COUNT>
0

> <PUBCHEM_BOND_DEF_STEREO_COUNT>
0

> <PUBCHEM_BOND_UDEF_STEREO_COUNT>
0

> <PUBCHEM_ISOTOPIC_ATOM_COUNT>
0

> <PUBCHEM_COMPONENT_COUNT>
1

> <PUBCHEM_CACTVS_TAUTO_COUNT>
2

> <PUBCHEM_CONFORMER_ID>
0109718900000001

> <PUBCHEM_MMFF94_ENERGY>
95.3486

> <PUBCHEM_FEATURE_SELFOVERLAP>
45.669

> <PUBCHEM_SHAPE_FINGERPRINT>
10316853 100 18272927224188199202
10864689 126 18129942420408395011
11505856 67 16040253080092530556
117089 54 17756132745850645198
12128747 34 18127699434099294317
12596602 18 17967249776552845723
12778500 126 16733261343711763586
12788726 201 17095511903497036113
13150687 139 17915153790906641860
13402501 40 18060415820211033867
13533116 47 18259703402119638329
1361 2 18342738494442334091
13751561 76 18343302600412703258
14840074 17 18334579088132286391
15001296 14 18334864896129527351
15238133 3 5111995128716375486
15392192 104 18198615541740944273
15419008 42 17487079966332923175
15483637 11 18123749742939431579
15721738 202 18040995201895240930
17492 54 17844782912040242174
19319366 153 18335149677930498706
1979834 28 18342740697850468060
20567600 75 18271811246425508573
21133410 230 14223589034789310147
21197605 99 18268989778554786059
21623969 137 18273217486841427595
23081809 10 13614525160652823637
23559900 14 17988918973309080765
239999 70 18410012169607823582
25269216 80 15984523531139128371
3178227 256 18341902892213746410
345986 75 17897171427371186435
3633792 109 18340495560527889597
394071 54 18410011031188035677
404807 78 16772927256149328795
4073 2 18342455890569881947
4144715 1 18131344195108177253
4340502 62 18342177726195285308
437795 51 18340759377934074166
46194498 28 17775001293211293996
53794403 172 18058720295776127428
86090 222 18059282245187304923

> <PUBCHEM_SHAPE_MULTIPOLES>
572.07
17.46
3.52
1.53
31.53
1.09
-0.04
-1.95
0.26
-7.39
0.64
0.14
0.47
1.32

> <PUBCHEM_SHAPE_SELFOVERLAP>
1186.292

> <PUBCHEM_SHAPE_VOLUME>
333.2

> <PUBCHEM_COORDINATE_TYPE>
2
5
10

$$$$

