47205108
  -OEChem-06241222582D

 34 35  0     1  0  0  0  0  0999 V2000
    8.7006    0.1089    0.0000 S   0  0  0  0  0  0  0  0  0  0  0  0
    9.3392    1.7725    0.0000 S   0  0  0  0  0  0  0  0  0  0  0  0
    9.3698   -0.6343    0.0000 O   0  0  0  0  0  0  0  0  0  0  0  0
    8.0315    0.8520    0.0000 O   0  0  0  0  0  0  0  0  0  0  0  0
    6.4712   -1.8985    0.0000 O   0  0  0  0  0  0  0  0  0  0  0  0
    7.9575   -0.5603    0.0000 N   0  0  3  0  0  0  0  0  0  0  0  0
    5.3122   -0.6114    0.0000 N   0  0  0  0  0  0  0  0  0  0  0  0
    2.8090   -1.5593    0.0000 N   0  0  0  0  0  0  0  0  0  0  0  0
    2.0000   -0.9715    0.0000 N   0  0  0  0  0  0  0  0  0  0  0  0
    7.0064   -0.2512    0.0000 C   0  0  0  0  0  0  0  0  0  0  0  0
    9.4438    0.7780    0.0000 C   0  0  0  0  0  0  0  0  0  0  0  0
    6.2633   -0.9204    0.0000 C   0  0  0  0  0  0  0  0  0  0  0  0
    8.1654   -1.5384    0.0000 C   0  0  0  0  0  0  0  0  0  0  0  0
    4.5691   -1.2805    0.0000 C   0  0  0  0  0  0  0  0  0  0  0  0
    3.6180   -0.9715    0.0000 C   0  0  0  0  0  0  0  0  0  0  0  0
   10.4219    0.5701    0.0000 C   0  0  0  0  0  0  0  0  0  0  0  0
   10.9219    1.4361    0.0000 C   0  0  0  0  0  0  0  0  0  0  0  0
   10.2528    2.1793    0.0000 C   0  0  0  0  0  0  0  0  0  0  0  0
    3.3090   -0.0204    0.0000 C   0  0  0  0  0  0  0  0  0  0  0  0
    2.3090   -0.0204    0.0000 C   0  0  0  0  0  0  0  0  0  0  0  0
    7.2975    0.2962    0.0000 H   0  0  0  0  0  0  0  0  0  0  0  0
    6.5179    0.1305    0.0000 H   0  0  0  0  0  0  0  0  0  0  0  0
    7.5590   -1.6673    0.0000 H   0  0  0  0  0  0  0  0  0  0  0  0
    8.2943   -2.1449    0.0000 H   0  0  0  0  0  0  0  0  0  0  0  0
    8.7719   -1.4095    0.0000 H   0  0  0  0  0  0  0  0  0  0  0  0
    4.2780   -1.8279    0.0000 H   0  0  0  0  0  0  0  0  0  0  0  0
    5.0577   -1.6622    0.0000 H   0  0  0  0  0  0  0  0  0  0  0  0
    5.1833   -0.0049    0.0000 H   0  0  0  0  0  0  0  0  0  0  0  0
   10.6741    0.0037    0.0000 H   0  0  0  0  0  0  0  0  0  0  0  0
   11.5385    1.5009    0.0000 H   0  0  0  0  0  0  0  0  0  0  0  0
   10.3817    2.7857    0.0000 H   0  0  0  0  0  0  0  0  0  0  0  0
    3.6734    0.4812    0.0000 H   0  0  0  0  0  0  0  0  0  0  0  0
    2.8090   -2.1793    0.0000 H   0  0  0  0  0  0  0  0  0  0  0  0
    1.9446    0.4812    0.0000 H   0  0  0  0  0  0  0  0  0  0  0  0
  1  3  2  0  0  0  0
  1  4  2  0  0  0  0
  1  6  1  0  0  0  0
  1 11  1  0  0  0  0
  2 11  1  0  0  0  0
  2 18  1  0  0  0  0
  5 12  2  0  0  0  0
  6 10  1  0  0  0  0
  6 13  1  0  0  0  0
  7 12  1  0  0  0  0
  7 14  1  0  0  0  0
  7 28  1  0  0  0  0
  8  9  1  0  0  0  0
  8 15  1  0  0  0  0
  8 33  1  0  0  0  0
  9 20  2  0  0  0  0
 10 12  1  0  0  0  0
 10 21  1  0  0  0  0
 10 22  1  0  0  0  0
 11 16  2  0  0  0  0
 13 23  1  0  0  0  0
 13 24  1  0  0  0  0
 13 25  1  0  0  0  0
 14 15  1  0  0  0  0
 14 26  1  0  0  0  0
 14 27  1  0  0  0  0
 15 19  2  0  0  0  0
 16 17  1  0  0  0  0
 16 29  1  0  0  0  0
 17 18  2  0  0  0  0
 17 30  1  0  0  0  0
 18 31  1  0  0  0  0
 19 20  1  0  0  0  0
 19 32  1  0  0  0  0
 20 34  1  0  0  0  0
M  END
> <PUBCHEM_COMPOUND_CID>
47205108

> <PUBCHEM_COMPOUND_CANONICALIZED>
1

> <PUBCHEM_CACTVS_COMPLEXITY>
437

> <PUBCHEM_CACTVS_HBOND_ACCEPTOR>
6

> <PUBCHEM_CACTVS_HBOND_DONOR>
2

> <PUBCHEM_CACTVS_ROTATABLE_BOND>
6

> <PUBCHEM_CACTVS_SUBSKEYS>
AAADccBzsABgAAAAAAAAAAAAAAAAAWJAAAAAAAAAAAAAAAAB4AAAHgQYQAAACAjF1gS+gZLjAAquATV3UHDTBZAgihBYubi4ZJgIYIAgweEUhAhAHgCgQAAAAAAAAAAAAAAAAAAAAAAAAAAAAAAAAAAAAA==

> <PUBCHEM_IUPAC_OPENEYE_NAME>
2-[methyl(2-thienylsulfonyl)amino]-N-(1H-pyrazol-5-ylmethyl)acetamide

> <PUBCHEM_IUPAC_CAS_NAME>
2-[methyl(thiophen-2-ylsulfonyl)amino]-N-(1H-pyrazol-5-ylmethyl)acetamide

> <PUBCHEM_IUPAC_NAME>
2-[methyl(thiophen-2-ylsulfonyl)amino]-N-(1H-pyrazol-5-ylmethyl)acetamide

> <PUBCHEM_IUPAC_SYSTEMATIC_NAME>
2-[methyl(thiophen-2-ylsulfonyl)amino]-N-(1H-pyrazol-5-ylmethyl)ethanamide

> <PUBCHEM_IUPAC_TRADITIONAL_NAME>
2-[methyl(2-thienylsulfonyl)amino]-N-(1H-pyrazol-5-ylmethyl)acetamide

> <PUBCHEM_IUPAC_INCHI>
InChI=1S/C11H14N4O3S2/c1-15(20(17,18)11-3-2-6-19-11)8-10(16)12-7-9-4-5-13-14-9/h2-6H,7-8H2,1H3,(H,12,16)(H,13,14)

> <PUBCHEM_IUPAC_INCHIKEY>
XCEGZCJYTQGKJB-UHFFFAOYSA-N

> <PUBCHEM_XLOGP3_AA>
0.3

> <PUBCHEM_EXACT_MASS>
314.050732

> <PUBCHEM_MOLECULAR_FORMULA>
C11H14N4O3S2

> <PUBCHEM_MOLECULAR_WEIGHT>
314.38386

> <PUBCHEM_OPENEYE_CAN_SMILES>
CN(CC(=O)NCC1=CC=NN1)S(=O)(=O)C2=CC=CS2

> <PUBCHEM_OPENEYE_ISO_SMILES>
CN(CC(=O)NCC1=CC=NN1)S(=O)(=O)C2=CC=CS2

> <PUBCHEM_CACTVS_TPSA>
132

> <PUBCHEM_MONOISOTOPIC_WEIGHT>
314.050732

> <PUBCHEM_TOTAL_CHARGE>
0

> <PUBCHEM_HEAVY_ATOM_COUNT>
20

> <PUBCHEM_ATOM_DEF_STEREO_COUNT>
0

> <PUBCHEM_ATOM_UDEF_STEREO_COUNT>
0

> <PUBCHEM_BOND_DEF_STEREO_COUNT>
0

> <PUBCHEM_BOND_UDEF_STEREO_COUNT>
0

> <PUBCHEM_ISOTOPIC_ATOM_COUNT>
0

> <PUBCHEM_COMPONENT_COUNT>
1

> <PUBCHEM_CACTVS_TAUTO_COUNT>
4

> <PUBCHEM_COORDINATE_TYPE>
1
5
255

> <PUBCHEM_BONDANNOTATIONS>
11  16  8
15  19  8
16  17  8
17  18  8
19  20  8
2  11  8
2  18  8
8  15  8
8  9  8
9  20  8

$$$$

