13294
  -OEChem-06261208383D

 41 42  0     1  0  0  0  0  0999 V2000
    0.1253   -1.5335   -0.3459 O   0  0  0  0  0  0  0  0  0  0  0  0
    1.0409    2.9369    0.5512 O   0  0  0  0  0  0  0  0  0  0  0  0
   -3.3047    1.5342    0.2086 O   0  0  0  0  0  0  0  0  0  0  0  0
    0.6651    0.7150   -0.0595 N   0  0  0  0  0  0  0  0  0  0  0  0
   -1.1175    2.2226    0.3201 N   0  0  0  0  0  0  0  0  0  0  0  0
    2.0741    0.4202    0.0420 C   0  0  0  0  0  0  0  0  0  0  0  0
    2.3416   -0.5588    1.1883 C   0  0  0  0  0  0  0  0  0  0  0  0
    2.6063   -0.1200   -1.2875 C   0  0  0  0  0  0  0  0  0  0  0  0
    3.8201   -0.9267    1.2796 C   0  0  0  0  0  0  0  0  0  0  0  0
    4.0842   -0.4902   -1.1931 C   0  0  0  0  0  0  0  0  0  0  0  0
    4.3493   -1.4630   -0.0475 C   0  0  0  0  0  0  0  0  0  0  0  0
   -1.6095    0.0890   -0.7251 C   0  0  2  0  0  0  0  0  0  0  0  0
   -2.6040   -1.0637   -0.5953 C   0  0  1  0  0  0  0  0  0  0  0  0
   -0.2074   -0.3478   -0.3417 C   0  0  0  0  0  0  0  0  0  0  0  0
    0.2604    2.0233    0.2705 C   0  0  0  0  0  0  0  0  0  0  0  0
   -2.1135    1.3178   -0.0056 C   0  0  0  0  0  0  0  0  0  0  0  0
   -2.7763   -1.4438    0.8866 C   0  0  0  0  0  0  0  0  0  0  0  0
   -3.9309   -0.6816   -1.2548 C   0  0  0  0  0  0  0  0  0  0  0  0
   -3.7035   -2.6300    1.1093 C   0  0  0  0  0  0  0  0  0  0  0  0
    2.6355    1.3366    0.2620 H   0  0  0  0  0  0  0  0  0  0  0  0
    1.7871   -1.4959    1.1067 H   0  0  0  0  0  0  0  0  0  0  0  0
    2.0253   -0.1065    2.1370 H   0  0  0  0  0  0  0  0  0  0  0  0
    2.4729    0.6350   -2.0725 H   0  0  0  0  0  0  0  0  0  0  0  0
    2.0600   -1.0064   -1.6262 H   0  0  0  0  0  0  0  0  0  0  0  0
    3.9677   -1.6754    2.0662 H   0  0  0  0  0  0  0  0  0  0  0  0
    4.3986   -0.0414    1.5713 H   0  0  0  0  0  0  0  0  0  0  0  0
    4.6790    0.4194   -1.0435 H   0  0  0  0  0  0  0  0  0  0  0  0
    4.4151   -0.9343   -2.1387 H   0  0  0  0  0  0  0  0  0  0  0  0
    5.4254   -1.6525    0.0340 H   0  0  0  0  0  0  0  0  0  0  0  0
    3.8706   -2.4251   -0.2684 H   0  0  0  0  0  0  0  0  0  0  0  0
   -1.5331    0.3732   -1.7853 H   0  0  0  0  0  0  0  0  0  0  0  0
   -2.2121   -1.9353   -1.1365 H   0  0  0  0  0  0  0  0  0  0  0  0
   -3.1697   -0.6072    1.4738 H   0  0  0  0  0  0  0  0  0  0  0  0
   -1.8073   -1.6981    1.3302 H   0  0  0  0  0  0  0  0  0  0  0  0
   -4.6220   -0.1597   -0.5876 H   0  0  0  0  0  0  0  0  0  0  0  0
   -4.4547   -1.5945   -1.5643 H   0  0  0  0  0  0  0  0  0  0  0  0
   -3.7865   -0.0851   -2.1617 H   0  0  0  0  0  0  0  0  0  0  0  0
   -1.4261    3.1202    0.6833 H   0  0  0  0  0  0  0  0  0  0  0  0
   -3.7264   -2.8963    2.1710 H   0  0  0  0  0  0  0  0  0  0  0  0
   -3.3604   -3.5051    0.5484 H   0  0  0  0  0  0  0  0  0  0  0  0
   -4.7285   -2.4016    0.8022 H   0  0  0  0  0  0  0  0  0  0  0  0
  1 14  2  0  0  0  0
  2 15  2  0  0  0  0
  3 16  2  0  0  0  0
  4  6  1  0  0  0  0
  4 14  1  0  0  0  0
  4 15  1  0  0  0  0
  5 15  1  0  0  0  0
  5 16  1  0  0  0  0
  5 38  1  0  0  0  0
  6  7  1  0  0  0  0
  6  8  1  0  0  0  0
  6 20  1  0  0  0  0
  7  9  1  0  0  0  0
  7 21  1  0  0  0  0
  7 22  1  0  0  0  0
  8 10  1  0  0  0  0
  8 23  1  0  0  0  0
  8 24  1  0  0  0  0
  9 11  1  0  0  0  0
  9 25  1  0  0  0  0
  9 26  1  0  0  0  0
 10 11  1  0  0  0  0
 10 27  1  0  0  0  0
 10 28  1  0  0  0  0
 11 29  1  0  0  0  0
 11 30  1  0  0  0  0
 12 13  1  0  0  0  0
 12 14  1  0  0  0  0
 12 16  1  0  0  0  0
 12 31  1  0  0  0  0
 13 17  1  0  0  0  0
 13 18  1  0  0  0  0
 13 32  1  0  0  0  0
 17 19  1  0  0  0  0
 17 33  1  0  0  0  0
 17 34  1  0  0  0  0
 18 35  1  0  0  0  0
 18 36  1  0  0  0  0
 18 37  1  0  0  0  0
 19 39  1  0  0  0  0
 19 40  1  0  0  0  0
 19 41  1  0  0  0  0
M  END
> <PUBCHEM_COMPOUND_CID>
13294

> <PUBCHEM_CONFORMER_RMSD>
0.6

> <PUBCHEM_CONFORMER_DIVERSEORDER>
4
32
45
37
41
39
54
18
51
48
35
46
25
7
44
43
33
53
3
34
20
47
26
2
15
36
38
11
30
49
5
50
19
9
21
1
28
22
52
27
23
40
24
42
8
13
29
10
12
31
16
6
14
17

> <PUBCHEM_MMFF94_PARTIAL_CHARGES>
11
1 -0.57
12 0.12
14 0.57
15 0.69
16 0.57
2 -0.57
3 -0.57
38 0.37
4 -0.42
5 -0.49
6 0.3

> <PUBCHEM_EFFECTIVE_ROTOR_COUNT>
4.8

> <PUBCHEM_PHARMACOPHORE_FEATURES>
9
1 1 acceptor
1 12 anion
1 18 hydrophobe
1 19 hydrophobe
1 2 acceptor
1 3 acceptor
1 5 donor
6 4 5 12 14 15 16 rings
6 6 7 8 9 10 11 rings

> <PUBCHEM_HEAVY_ATOM_COUNT>
19

> <PUBCHEM_ATOM_DEF_STEREO_COUNT>
0

> <PUBCHEM_ATOM_UDEF_STEREO_COUNT>
2

> <PUBCHEM_BOND_DEF_STEREO_COUNT>
0

> <PUBCHEM_BOND_UDEF_STEREO_COUNT>
0

> <PUBCHEM_ISOTOPIC_ATOM_COUNT>
0

> <PUBCHEM_COMPONENT_COUNT>
1

> <PUBCHEM_CACTVS_TAUTO_COUNT>
3

> <PUBCHEM_CONFORMER_ID>
000033EE00000004

> <PUBCHEM_MMFF94_ENERGY>
39.7951

> <PUBCHEM_FEATURE_SELFOVERLAP>
45.669

> <PUBCHEM_SHAPE_FINGERPRINT>
10062212 137 18340770432963706975
11132069 177 18189340219829709524
11543360 7 16486973955725038726
11578080 2 17701571526332803252
11680986 33 18266469715157216673
12032990 46 18408601448559566374
12236239 1 17988357200076328716
12363563 72 18335422339750005407
12553582 1 18411698807185032979
12633257 1 18264464270873511539
12707595 3 18338516339621667838
12824470 246 17917993858303216242
13103583 49 17981005736584753635
13140716 1 18335417959110528817
13296908 3 18187090559189065756
13538477 17 18272086162459546124
13760787 19 17846492664462011902
14115302 16 18060422434396859285
15848700 24 18186812365330005726
16752209 62 18339653320596946655
16945 1 18263927798940093893
17804303 29 18412260623530832079
18186145 218 17632855343640844806
18222031 100 18041841710137614911
19422 9 18131909369184179734
20281475 54 18131351912098317186
20645477 70 18119260471511981479
21041028 32 18115008728767082225
232386 152 18411702114294214972
2334 1 18263929834765278053
23366157 5 18271529672063851564
23402539 116 18261682575011054326
23557571 272 18115590486524509172
23559900 14 18200603500911880228
2748010 2 18264219032119528365
31174 14 18048872996892145155
5104073 3 18335704970684589194
5902787 121 18411702080071652616
7364860 26 18042974155685516048
77492 1 17916581080941349348
81228 2 18044648930658324304
8809292 202 18412826902015355553

> <PUBCHEM_SHAPE_MULTIPOLES>
363.44
7.81
2.51
1.23
2.13
0.96
-0.07
-4.75
-0.4
-1.47
0.9
0.3
-0.37
0.32

> <PUBCHEM_SHAPE_SELFOVERLAP>
749.455

> <PUBCHEM_SHAPE_VOLUME>
204.4

> <PUBCHEM_COORDINATE_TYPE>
2
5
10

$$$$

