47205723
  -OEChem-06241223003D

 36 36  0     0  0  0  0  0  0999 V2000
   -0.2871   -0.1211   -0.1486 O   0  0  0  0  0  0  0  0  0  0  0  0
    3.1712    0.9591   -0.4603 O   0  0  0  0  0  0  0  0  0  0  0  0
   -2.5476   -1.2057    0.8319 O   0  0  0  0  0  0  0  0  0  0  0  0
   -5.2813    1.0334    0.2862 O   0  0  0  0  0  0  0  0  0  0  0  0
   -7.0032   -0.4685    0.5571 O   0  0  0  0  0  0  0  0  0  0  0  0
   -3.7785   -0.6082   -1.0503 N   0  0  0  0  0  0  0  0  0  0  0  0
    0.8432    0.4900   -0.7638 C   0  0  0  0  0  0  0  0  0  0  0  0
    2.0376    0.3671    0.1627 C   0  0  0  0  0  0  0  0  0  0  0  0
   -1.4426   -0.0214   -0.9536 C   0  0  0  0  0  0  0  0  0  0  0  0
    4.3970    0.4479   -0.1239 C   0  0  0  0  0  0  0  0  0  0  0  0
   -2.6253   -0.6786   -0.2745 C   0  0  0  0  0  0  0  0  0  0  0  0
   -5.0385   -1.1558   -0.6376 C   0  0  0  0  0  0  0  0  0  0  0  0
    4.6008   -0.0993    1.1428 C   0  0  0  0  0  0  0  0  0  0  0  0
    5.4412    0.4747   -1.0483 C   0  0  0  0  0  0  0  0  0  0  0  0
    5.8489   -0.6197    1.4852 C   0  0  0  0  0  0  0  0  0  0  0  0
    6.6892   -0.0457   -0.7060 C   0  0  0  0  0  0  0  0  0  0  0  0
    6.8931   -0.5929    0.5608 C   0  0  0  0  0  0  0  0  0  0  0  0
   -5.8905   -0.1744    0.1325 C   0  0  0  0  0  0  0  0  0  0  0  0
   -6.0278    2.0191    1.0075 C   0  0  0  0  0  0  0  0  0  0  0  0
    1.0594    0.0012   -1.7216 H   0  0  0  0  0  0  0  0  0  0  0  0
    0.6369    1.5475   -0.9685 H   0  0  0  0  0  0  0  0  0  0  0  0
    2.1879   -0.7007    0.3716 H   0  0  0  0  0  0  0  0  0  0  0  0
    1.8279    0.8760    1.1111 H   0  0  0  0  0  0  0  0  0  0  0  0
   -1.6871    1.0328   -1.1283 H   0  0  0  0  0  0  0  0  0  0  0  0
   -1.2731   -0.5208   -1.9145 H   0  0  0  0  0  0  0  0  0  0  0  0
   -3.7402   -0.1305   -1.9462 H   0  0  0  0  0  0  0  0  0  0  0  0
   -4.8628   -2.0311   -0.0051 H   0  0  0  0  0  0  0  0  0  0  0  0
   -5.5785   -1.4481   -1.5426 H   0  0  0  0  0  0  0  0  0  0  0  0
    3.8237   -0.1146    1.9011 H   0  0  0  0  0  0  0  0  0  0  0  0
    5.2881    0.8996   -2.0366 H   0  0  0  0  0  0  0  0  0  0  0  0
    6.0101   -1.0401    2.4737 H   0  0  0  0  0  0  0  0  0  0  0  0
    7.5023   -0.0247   -1.4257 H   0  0  0  0  0  0  0  0  0  0  0  0
    7.8654   -0.9967    0.8278 H   0  0  0  0  0  0  0  0  0  0  0  0
   -5.4272    2.9313    1.0564 H   0  0  0  0  0  0  0  0  0  0  0  0
   -6.2251    1.6736    2.0268 H   0  0  0  0  0  0  0  0  0  0  0  0
   -6.9634    2.2421    0.4860 H   0  0  0  0  0  0  0  0  0  0  0  0
  1  7  1  0  0  0  0
  1  9  1  0  0  0  0
  2  8  1  0  0  0  0
  2 10  1  0  0  0  0
  3 11  2  0  0  0  0
  4 18  1  0  0  0  0
  4 19  1  0  0  0  0
  5 18  2  0  0  0  0
  6 11  1  0  0  0  0
  6 12  1  0  0  0  0
  6 26  1  0  0  0  0
  7  8  1  0  0  0  0
  7 20  1  0  0  0  0
  7 21  1  0  0  0  0
  8 22  1  0  0  0  0
  8 23  1  0  0  0  0
  9 11  1  0  0  0  0
  9 24  1  0  0  0  0
  9 25  1  0  0  0  0
 10 13  2  0  0  0  0
 10 14  1  0  0  0  0
 12 18  1  0  0  0  0
 12 27  1  0  0  0  0
 12 28  1  0  0  0  0
 13 15  1  0  0  0  0
 13 29  1  0  0  0  0
 14 16  2  0  0  0  0
 14 30  1  0  0  0  0
 15 17  2  0  0  0  0
 15 31  1  0  0  0  0
 16 17  1  0  0  0  0
 16 32  1  0  0  0  0
 17 33  1  0  0  0  0
 19 34  1  0  0  0  0
 19 35  1  0  0  0  0
 19 36  1  0  0  0  0
M  END
> <PUBCHEM_COMPOUND_CID>
47205723

> <PUBCHEM_CONFORMER_RMSD>
1

> <PUBCHEM_CONFORMER_DIVERSEORDER>
2
67
38
60
36
18
6
65
98
101
90
104
88
93
28
82
84
109
110
13
78
69
105
20
72
114
85
99
57
42
22
33
91
112
59
4
66
68
96
63
46
80
44
103
45
81
41
8
87
14
24
62
61
73
49
94
97
39
40
50
107
48
54
3
56
113
71
106
51
17
37
25
108
95
21
29
89
111
34
52
102
27
58
11
53
92
10
19
26
16
79
9
75
31
43
47
32
23
70
64
7
86
55
12
30
5
74
83
35
100
15
1
76
77

> <PUBCHEM_MMFF94_PARTIAL_CHARGES>
25
1 -0.56
10 0.08
11 0.57
12 0.36
13 -0.15
14 -0.15
15 -0.15
16 -0.15
17 -0.15
18 0.66
19 0.28
2 -0.36
26 0.37
29 0.15
3 -0.57
30 0.15
31 0.15
32 0.15
33 0.15
4 -0.43
5 -0.57
6 -0.73
7 0.28
8 0.28
9 0.34

> <PUBCHEM_EFFECTIVE_ROTOR_COUNT>
10

> <PUBCHEM_PHARMACOPHORE_FEATURES>
6
1 1 acceptor
1 2 acceptor
1 3 acceptor
1 5 acceptor
1 6 donor
6 10 13 14 15 16 17 rings

> <PUBCHEM_HEAVY_ATOM_COUNT>
19

> <PUBCHEM_ATOM_DEF_STEREO_COUNT>
0

> <PUBCHEM_ATOM_UDEF_STEREO_COUNT>
0

> <PUBCHEM_BOND_DEF_STEREO_COUNT>
0

> <PUBCHEM_BOND_UDEF_STEREO_COUNT>
0

> <PUBCHEM_ISOTOPIC_ATOM_COUNT>
0

> <PUBCHEM_COMPONENT_COUNT>
1

> <PUBCHEM_CACTVS_TAUTO_COUNT>
2

> <PUBCHEM_CONFORMER_ID>
02D04D5B00000002

> <PUBCHEM_MMFF94_ENERGY>
44.5732

> <PUBCHEM_FEATURE_SELFOVERLAP>
30.453

> <PUBCHEM_SHAPE_MULTIPOLES>
356.68
22.71
1.2
1.17
3.2
0.44
-0.2
2.74
-3.22
2.43
0.12
-1.31
0.04
0.98

> <PUBCHEM_SHAPE_SELFOVERLAP>
715.402

> <PUBCHEM_SHAPE_VOLUME>
209.2

> <PUBCHEM_COORDINATE_TYPE>
2
5
10

$$$$

