17395318
  -OEChem-06241222492D

 47 49  0     0  0  0  0  0  0999 V2000
    4.5981    2.9806    0.0000 S   0  0  0  0  0  0  0  0  0  0  0  0
    2.0000    0.4806    0.0000 O   0  0  0  0  0  0  0  0  0  0  0  0
    4.6551    5.0684    0.0000 O   0  0  0  0  0  0  0  0  0  0  0  0
    2.8660   -3.0194    0.0000 N   0  0  0  0  0  0  0  0  0  0  0  0
    2.8660   -1.0194    0.0000 N   0  0  0  0  0  0  0  0  0  0  0  0
    3.7320    0.4806    0.0000 N   0  0  0  0  0  0  0  0  0  0  0  0
    2.0000   -2.5194    0.0000 C   0  0  0  0  0  0  0  0  0  0  0  0
    3.7320   -2.5194    0.0000 C   0  0  0  0  0  0  0  0  0  0  0  0
    2.0000   -1.5194    0.0000 C   0  0  0  0  0  0  0  0  0  0  0  0
    3.7320   -1.5194    0.0000 C   0  0  0  0  0  0  0  0  0  0  0  0
    2.8660   -4.0194    0.0000 C   0  0  0  0  0  0  0  0  0  0  0  0
    2.8660   -0.0194    0.0000 C   0  0  0  0  0  0  0  0  0  0  0  0
    2.0000   -4.5194    0.0000 C   0  0  0  0  0  0  0  0  0  0  0  0
    3.7320   -4.5194    0.0000 C   0  0  0  0  0  0  0  0  0  0  0  0
    3.7320    1.4806    0.0000 C   0  0  0  0  0  0  0  0  0  0  0  0
    2.0000   -5.5194    0.0000 C   0  0  0  0  0  0  0  0  0  0  0  0
    3.7320   -5.5194    0.0000 C   0  0  0  0  0  0  0  0  0  0  0  0
    4.5981    1.9806    0.0000 C   0  0  0  0  0  0  0  0  0  0  0  0
    2.8660   -6.0194    0.0000 C   0  0  0  0  0  0  0  0  0  0  0  0
    5.4641    3.4806    0.0000 C   0  0  0  0  0  0  0  0  0  0  0  0
    5.4641    4.4806    0.0000 C   0  0  0  0  0  0  0  0  0  0  0  0
    6.2731    5.0684    0.0000 C   0  0  0  0  0  0  0  0  0  0  0  0
    5.9641    6.0194    0.0000 C   0  0  0  0  0  0  0  0  0  0  0  0
    4.9641    6.0194    0.0000 C   0  0  0  0  0  0  0  0  0  0  0  0
    1.3894   -2.4118    0.0000 H   0  0  0  0  0  0  0  0  0  0  0  0
    1.7880   -3.1020    0.0000 H   0  0  0  0  0  0  0  0  0  0  0  0
    3.9441   -3.1020    0.0000 H   0  0  0  0  0  0  0  0  0  0  0  0
    4.3426   -2.4118    0.0000 H   0  0  0  0  0  0  0  0  0  0  0  0
    1.7880   -0.9368    0.0000 H   0  0  0  0  0  0  0  0  0  0  0  0
    1.3894   -1.6271    0.0000 H   0  0  0  0  0  0  0  0  0  0  0  0
    4.3426   -1.6271    0.0000 H   0  0  0  0  0  0  0  0  0  0  0  0
    3.9441   -0.9368    0.0000 H   0  0  0  0  0  0  0  0  0  0  0  0
    4.2690    0.1706    0.0000 H   0  0  0  0  0  0  0  0  0  0  0  0
    1.4631   -4.2094    0.0000 H   0  0  0  0  0  0  0  0  0  0  0  0
    4.2690   -4.2094    0.0000 H   0  0  0  0  0  0  0  0  0  0  0  0
    3.5200    2.0632    0.0000 H   0  0  0  0  0  0  0  0  0  0  0  0
    3.1215    1.3729    0.0000 H   0  0  0  0  0  0  0  0  0  0  0  0
    1.4631   -5.8294    0.0000 H   0  0  0  0  0  0  0  0  0  0  0  0
    4.2690   -5.8294    0.0000 H   0  0  0  0  0  0  0  0  0  0  0  0
    4.8101    1.3980    0.0000 H   0  0  0  0  0  0  0  0  0  0  0  0
    5.2087    2.0882    0.0000 H   0  0  0  0  0  0  0  0  0  0  0  0
    2.8660   -6.6394    0.0000 H   0  0  0  0  0  0  0  0  0  0  0  0
    5.6762    2.8980    0.0000 H   0  0  0  0  0  0  0  0  0  0  0  0
    6.0747    3.5882    0.0000 H   0  0  0  0  0  0  0  0  0  0  0  0
    6.8628    4.8768    0.0000 H   0  0  0  0  0  0  0  0  0  0  0  0
    6.3285    6.5210    0.0000 H   0  0  0  0  0  0  0  0  0  0  0  0
    4.5997    6.5210    0.0000 H   0  0  0  0  0  0  0  0  0  0  0  0
  1 18  1  0  0  0  0
  1 20  1  0  0  0  0
  2 12  2  0  0  0  0
  3 21  1  0  0  0  0
  3 24  1  0  0  0  0
  4  7  1  0  0  0  0
  4  8  1  0  0  0  0
  4 11  1  0  0  0  0
  5  9  1  0  0  0  0
  5 10  1  0  0  0  0
  5 12  1  0  0  0  0
  6 12  1  0  0  0  0
  6 15  1  0  0  0  0
  6 33  1  0  0  0  0
  7  9  1  0  0  0  0
  7 25  1  0  0  0  0
  7 26  1  0  0  0  0
  8 10  1  0  0  0  0
  8 27  1  0  0  0  0
  8 28  1  0  0  0  0
  9 29  1  0  0  0  0
  9 30  1  0  0  0  0
 10 31  1  0  0  0  0
 10 32  1  0  0  0  0
 11 13  2  0  0  0  0
 11 14  1  0  0  0  0
 13 16  1  0  0  0  0
 13 34  1  0  0  0  0
 14 17  2  0  0  0  0
 14 35  1  0  0  0  0
 15 18  1  0  0  0  0
 15 36  1  0  0  0  0
 15 37  1  0  0  0  0
 16 19  2  0  0  0  0
 16 38  1  0  0  0  0
 17 19  1  0  0  0  0
 17 39  1  0  0  0  0
 18 40  1  0  0  0  0
 18 41  1  0  0  0  0
 19 42  1  0  0  0  0
 20 21  1  0  0  0  0
 20 43  1  0  0  0  0
 20 44  1  0  0  0  0
 21 22  2  0  0  0  0
 22 23  1  0  0  0  0
 22 45  1  0  0  0  0
 23 24  2  0  0  0  0
 23 46  1  0  0  0  0
 24 47  1  0  0  0  0
M  END
> <PUBCHEM_COMPOUND_CID>
17395318

> <PUBCHEM_COMPOUND_CANONICALIZED>
1

> <PUBCHEM_CACTVS_COMPLEXITY>
383

> <PUBCHEM_CACTVS_HBOND_ACCEPTOR>
4

> <PUBCHEM_CACTVS_HBOND_DONOR>
1

> <PUBCHEM_CACTVS_ROTATABLE_BOND>
6

> <PUBCHEM_CACTVS_SUBSKEYS>
AAADceB7MABAAAAAAAAAAAAAAAAAASAAAAA8QAAAAAAAAAABwAAAHgQQAAAACAzl0AaxxIPABEiIAKxS0ACCCAAlIhAIiIEObMiMZjLktZuWOSjs1hPo6YeYAAAAAAAAAAAAAAAAAAAAAAAAAAAAAAAAAA==

> <PUBCHEM_IUPAC_OPENEYE_NAME>
N-[2-(2-furylmethylsulfanyl)ethyl]-4-phenyl-piperazine-1-carboxamide

> <PUBCHEM_IUPAC_CAS_NAME>
N-[2-(2-furanylmethylthio)ethyl]-4-phenyl-1-piperazinecarboxamide

> <PUBCHEM_IUPAC_NAME>
N-[2-(furan-2-ylmethylsulfanyl)ethyl]-4-phenylpiperazine-1-carboxamide

> <PUBCHEM_IUPAC_SYSTEMATIC_NAME>
N-[2-(furan-2-ylmethylsulfanyl)ethyl]-4-phenyl-piperazine-1-carboxamide

> <PUBCHEM_IUPAC_TRADITIONAL_NAME>
N-[2-(2-furfurylthio)ethyl]-4-phenyl-piperazine-1-carboxamide

> <PUBCHEM_IUPAC_INCHI>
InChI=1S/C18H23N3O2S/c22-18(19-8-14-24-15-17-7-4-13-23-17)21-11-9-20(10-12-21)16-5-2-1-3-6-16/h1-7,13H,8-12,14-15H2,(H,19,22)

> <PUBCHEM_IUPAC_INCHIKEY>
XWLICEABNLGLKV-UHFFFAOYSA-N

> <PUBCHEM_XLOGP3_AA>
2.4

> <PUBCHEM_EXACT_MASS>
345.151098

> <PUBCHEM_MOLECULAR_FORMULA>
C18H23N3O2S

> <PUBCHEM_MOLECULAR_WEIGHT>
345.45912

> <PUBCHEM_OPENEYE_CAN_SMILES>
C1CN(CCN1C2=CC=CC=C2)C(=O)NCCSCC3=CC=CO3

> <PUBCHEM_OPENEYE_ISO_SMILES>
C1CN(CCN1C2=CC=CC=C2)C(=O)NCCSCC3=CC=CO3

> <PUBCHEM_CACTVS_TPSA>
74

> <PUBCHEM_MONOISOTOPIC_WEIGHT>
345.151098

> <PUBCHEM_TOTAL_CHARGE>
0

> <PUBCHEM_HEAVY_ATOM_COUNT>
24

> <PUBCHEM_ATOM_DEF_STEREO_COUNT>
0

> <PUBCHEM_ATOM_UDEF_STEREO_COUNT>
0

> <PUBCHEM_BOND_DEF_STEREO_COUNT>
0

> <PUBCHEM_BOND_UDEF_STEREO_COUNT>
0

> <PUBCHEM_ISOTOPIC_ATOM_COUNT>
0

> <PUBCHEM_COMPONENT_COUNT>
1

> <PUBCHEM_CACTVS_TAUTO_COUNT>
2

> <PUBCHEM_COORDINATE_TYPE>
1
5
255

> <PUBCHEM_BONDANNOTATIONS>
11  13  8
11  14  8
13  16  8
14  17  8
16  19  8
17  19  8
21  22  8
22  23  8
23  24  8
3  21  8
3  24  8

$$$$

