47205755
  -OEChem-06241223003D

 45 47  0     1  0  0  0  0  0999 V2000
   -1.2654    2.6800   -0.3049 O   0  0  0  0  0  0  0  0  0  0  0  0
    0.4746    1.1115   -0.2198 N   0  0  0  0  0  0  0  0  0  0  0  0
   -3.6077   -0.7403    0.4264 N   0  0  0  0  0  0  0  0  0  0  0  0
   -2.9864   -0.9785    1.5940 N   0  0  0  0  0  0  0  0  0  0  0  0
    2.2213   -0.4209    0.7162 C   0  0  2  0  0  0  0  0  0  0  0  0
    0.9201   -0.2966   -0.1147 C   0  0  2  0  0  0  0  0  0  0  0  0
    3.3149    0.5554    0.2088 C   0  0  1  0  0  0  0  0  0  0  0  0
    2.6645   -1.8946    0.7635 C   0  0  0  0  0  0  0  0  0  0  0  0
    1.0456   -0.9392   -1.5087 C   0  0  0  0  0  0  0  0  0  0  0  0
    2.7510    1.9856    0.1918 C   0  0  0  0  0  0  0  0  0  0  0  0
    2.8037   -2.5207   -0.6213 C   0  0  0  0  0  0  0  0  0  0  0  0
    1.5131   -2.3887   -1.4231 C   0  0  0  0  0  0  0  0  0  0  0  0
    1.4839    2.0811   -0.6463 C   0  0  0  0  0  0  0  0  0  0  0  0
    4.5831    0.5230    1.0660 C   0  0  0  0  0  0  0  0  0  0  0  0
   -0.8530    1.5411   -0.0905 C   0  0  0  0  0  0  0  0  0  0  0  0
   -1.8582    0.5648    0.3440 C   0  0  0  0  0  0  0  0  0  0  0  0
   -2.9725    0.1764   -0.3589 C   0  0  0  0  0  0  0  0  0  0  0  0
   -1.9184   -0.1784    1.5380 C   0  0  0  0  0  0  0  0  0  0  0  0
   -3.4824    0.5832   -1.6828 C   0  0  0  0  0  0  0  0  0  0  0  0
   -4.8320   -1.4443    0.1222 C   0  0  0  0  0  0  0  0  0  0  0  0
    1.9811   -0.1246    1.7481 H   0  0  0  0  0  0  0  0  0  0  0  0
    0.1653   -0.8813    0.4117 H   0  0  0  0  0  0  0  0  0  0  0  0
    3.6027    0.2914   -0.8162 H   0  0  0  0  0  0  0  0  0  0  0  0
    3.6002   -2.0106    1.3190 H   0  0  0  0  0  0  0  0  0  0  0  0
    1.9136   -2.4645    1.3274 H   0  0  0  0  0  0  0  0  0  0  0  0
    0.0773   -0.9003   -2.0228 H   0  0  0  0  0  0  0  0  0  0  0  0
    1.7459   -0.3761   -2.1363 H   0  0  0  0  0  0  0  0  0  0  0  0
    2.5299    2.3061    1.2183 H   0  0  0  0  0  0  0  0  0  0  0  0
    3.4988    2.6816   -0.2066 H   0  0  0  0  0  0  0  0  0  0  0  0
    3.6293   -2.0487   -1.1661 H   0  0  0  0  0  0  0  0  0  0  0  0
    3.0601   -3.5813   -0.5180 H   0  0  0  0  0  0  0  0  0  0  0  0
    0.7290   -2.9962   -0.9543 H   0  0  0  0  0  0  0  0  0  0  0  0
    1.6632   -2.7883   -2.4324 H   0  0  0  0  0  0  0  0  0  0  0  0
    1.7041    1.8914   -1.7027 H   0  0  0  0  0  0  0  0  0  0  0  0
    1.0855    3.0994   -0.5842 H   0  0  0  0  0  0  0  0  0  0  0  0
    5.1041   -0.4342    0.9721 H   0  0  0  0  0  0  0  0  0  0  0  0
    5.2858    1.3014    0.7490 H   0  0  0  0  0  0  0  0  0  0  0  0
    4.3529    0.6873    2.1240 H   0  0  0  0  0  0  0  0  0  0  0  0
   -1.2332   -0.1696    2.3741 H   0  0  0  0  0  0  0  0  0  0  0  0
   -2.7528    1.1937   -2.2241 H   0  0  0  0  0  0  0  0  0  0  0  0
   -4.3990    1.1725   -1.5781 H   0  0  0  0  0  0  0  0  0  0  0  0
   -3.7009   -0.2899   -2.3064 H   0  0  0  0  0  0  0  0  0  0  0  0
   -5.5907   -0.7166   -0.1757 H   0  0  0  0  0  0  0  0  0  0  0  0
   -5.1724   -1.9848    1.0095 H   0  0  0  0  0  0  0  0  0  0  0  0
   -4.6294   -2.1483   -0.6885 H   0  0  0  0  0  0  0  0  0  0  0  0
  1 15  2  0  0  0  0
  2  6  1  0  0  0  0
  2 13  1  0  0  0  0
  2 15  1  0  0  0  0
  3  4  1  0  0  0  0
  3 17  1  0  0  0  0
  3 20  1  0  0  0  0
  4 18  2  0  0  0  0
  5  6  1  0  0  0  0
  5  7  1  0  0  0  0
  5  8  1  0  0  0  0
  5 21  1  0  0  0  0
  6  9  1  0  0  0  0
  6 22  1  0  0  0  0
  7 10  1  0  0  0  0
  7 14  1  0  0  0  0
  7 23  1  0  0  0  0
  8 11  1  0  0  0  0
  8 24  1  0  0  0  0
  8 25  1  0  0  0  0
  9 12  1  0  0  0  0
  9 26  1  0  0  0  0
  9 27  1  0  0  0  0
 10 13  1  0  0  0  0
 10 28  1  0  0  0  0
 10 29  1  0  0  0  0
 11 12  1  0  0  0  0
 11 30  1  0  0  0  0
 11 31  1  0  0  0  0
 12 32  1  0  0  0  0
 12 33  1  0  0  0  0
 13 34  1  0  0  0  0
 13 35  1  0  0  0  0
 14 36  1  0  0  0  0
 14 37  1  0  0  0  0
 14 38  1  0  0  0  0
 15 16  1  0  0  0  0
 16 17  2  0  0  0  0
 16 18  1  0  0  0  0
 17 19  1  0  0  0  0
 18 39  1  0  0  0  0
 19 40  1  0  0  0  0
 19 41  1  0  0  0  0
 19 42  1  0  0  0  0
 20 43  1  0  0  0  0
 20 44  1  0  0  0  0
 20 45  1  0  0  0  0
M  END
> <PUBCHEM_COMPOUND_CID>
47205755

> <PUBCHEM_CONFORMER_RMSD>
0.6

> <PUBCHEM_CONFORMER_DIVERSEORDER>
2
32
51
36
53
78
64
40
93
27
54
80
61
45
35
55
41
50
22
82
94
52
67
90
20
23
8
79
88
19
81
16
77
7
10
21
48
84
76
65
89
38
15
39
5
24
33
4
96
66
56
25
37
49
42
87
47
1
86
9
43
26
71
68
11
30
18
92
95
28
6
3
83
57
14
31
75
63
91
69
73
17
72
34
74
70
58
12
85
29
60
13
44
46
59
62

> <PUBCHEM_MMFF94_PARTIAL_CHARGES>
13
1 -0.57
13 0.3
15 0.72
16 -0.09
17 -0.33
18 0.14
19 0.18
2 -0.66
20 0.26
3 0.31
39 0.15
4 -0.71
6 0.3

> <PUBCHEM_EFFECTIVE_ROTOR_COUNT>
3.6

> <PUBCHEM_PHARMACOPHORE_FEATURES>
5
1 1 acceptor
1 4 acceptor
5 3 4 16 17 18 rings
6 2 5 6 7 10 13 rings
6 5 6 8 9 11 12 rings

> <PUBCHEM_HEAVY_ATOM_COUNT>
20

> <PUBCHEM_ATOM_DEF_STEREO_COUNT>
0

> <PUBCHEM_ATOM_UDEF_STEREO_COUNT>
3

> <PUBCHEM_BOND_DEF_STEREO_COUNT>
0

> <PUBCHEM_BOND_UDEF_STEREO_COUNT>
0

> <PUBCHEM_ISOTOPIC_ATOM_COUNT>
0

> <PUBCHEM_COMPONENT_COUNT>
1

> <PUBCHEM_CACTVS_TAUTO_COUNT>
1

> <PUBCHEM_CONFORMER_ID>
02D04D7B00000002

> <PUBCHEM_MMFF94_ENERGY>
37.2696

> <PUBCHEM_FEATURE_SELFOVERLAP>
25.428

> <PUBCHEM_SHAPE_MULTIPOLES>
390.78
7.75
2.6
1.39
3.93
0.16
-0.07
1.77
1.48
-1.62
-0.69
0.46
0.4
0.92

> <PUBCHEM_SHAPE_SELFOVERLAP>
817.587

> <PUBCHEM_SHAPE_VOLUME>
220.8

> <PUBCHEM_COORDINATE_TYPE>
2
5
10

$$$$

