6258
  -OEChem-06261201122D

 15 16  0     0  0  0  0  0  0999 V2000
    2.0000   -1.3776    0.0000 Cl  0  0  0  0  0  0  0  0  0  0  0  0
    5.5443   -1.1824    0.0000 S   0  0  0  0  0  0  0  0  0  0  0  0
    5.8550    1.3776    0.0000 O   0  0  0  0  0  0  0  0  0  0  0  0
    6.1279   -0.3776    0.0000 N   0  0  0  0  0  0  0  0  0  0  0  0
    4.5981    0.1224    0.0000 C   0  0  0  0  0  0  0  0  0  0  0  0
    4.5981   -0.8776    0.0000 C   0  0  0  0  0  0  0  0  0  0  0  0
    3.7320    0.6224    0.0000 C   0  0  0  0  0  0  0  0  0  0  0  0
    5.5443    0.4271    0.0000 C   0  0  0  0  0  0  0  0  0  0  0  0
    3.7320   -1.3776    0.0000 C   0  0  0  0  0  0  0  0  0  0  0  0
    2.8660    0.1224    0.0000 C   0  0  0  0  0  0  0  0  0  0  0  0
    2.8660   -0.8776    0.0000 C   0  0  0  0  0  0  0  0  0  0  0  0
    3.7320    1.2424    0.0000 H   0  0  0  0  0  0  0  0  0  0  0  0
    3.7320   -1.9976    0.0000 H   0  0  0  0  0  0  0  0  0  0  0  0
    2.3291    0.4324    0.0000 H   0  0  0  0  0  0  0  0  0  0  0  0
    6.7479   -0.3776    0.0000 H   0  0  0  0  0  0  0  0  0  0  0  0
  1 11  1  0  0  0  0
  2  4  1  0  0  0  0
  2  6  1  0  0  0  0
  3  8  2  0  0  0  0
  4  8  1  0  0  0  0
  4 15  1  0  0  0  0
  5  6  2  0  0  0  0
  5  7  1  0  0  0  0
  5  8  1  0  0  0  0
  6  9  1  0  0  0  0
  7 10  2  0  0  0  0
  7 12  1  0  0  0  0
  9 11  2  0  0  0  0
  9 13  1  0  0  0  0
 10 11  1  0  0  0  0
 10 14  1  0  0  0  0
M  END
> <PUBCHEM_COMPOUND_CID>
6258

> <PUBCHEM_COMPOUND_CANONICALIZED>
1

> <PUBCHEM_CACTVS_COMPLEXITY>
187

> <PUBCHEM_CACTVS_HBOND_ACCEPTOR>
2

> <PUBCHEM_CACTVS_HBOND_DONOR>
1

> <PUBCHEM_CACTVS_ROTATABLE_BOND>
0

> <PUBCHEM_CACTVS_SUBSKEYS>
AAADcYBiIABEAAAAAAAAAAAAAAAAAWAAAAAwAAAAAAAAAFgBAAAAHgYQQAAADAKB2CAwAYBAAACIAiFSEACCABAkBQAIiBkABsgIIDKBlxGAIQBggAAIiYcYiACOBAAAABAEAAAIAAAAIAgAAAAAAAAAAA==

> <PUBCHEM_IUPAC_OPENEYE_NAME>
6-chloro-1,2-benzothiazol-3-one

> <PUBCHEM_IUPAC_CAS_NAME>
6-chloro-1,2-benzothiazol-3-one

> <PUBCHEM_IUPAC_NAME>
6-chloro-1,2-benzothiazol-3-one

> <PUBCHEM_IUPAC_SYSTEMATIC_NAME>
6-chloranyl-1,2-benzothiazol-3-one

> <PUBCHEM_IUPAC_TRADITIONAL_NAME>
6-chloro-1,2-benzothiazol-3-one

> <PUBCHEM_IUPAC_INCHI>
InChI=1S/C7H4ClNOS/c8-4-1-2-5-6(3-4)11-9-7(5)10/h1-3H,(H,9,10)

> <PUBCHEM_IUPAC_INCHIKEY>
POPOYOKQQAEISW-UHFFFAOYSA-N

> <PUBCHEM_XLOGP3_AA>
1.9

> <PUBCHEM_EXACT_MASS>
184.970212

> <PUBCHEM_MOLECULAR_FORMULA>
C7H4ClNOS

> <PUBCHEM_MOLECULAR_WEIGHT>
185.63076

> <PUBCHEM_OPENEYE_CAN_SMILES>
C1=CC2=C(C=C1Cl)SNC2=O

> <PUBCHEM_OPENEYE_ISO_SMILES>
C1=CC2=C(C=C1Cl)SNC2=O

> <PUBCHEM_CACTVS_TPSA>
54.4

> <PUBCHEM_MONOISOTOPIC_WEIGHT>
184.970212

> <PUBCHEM_TOTAL_CHARGE>
0

> <PUBCHEM_HEAVY_ATOM_COUNT>
11

> <PUBCHEM_ATOM_DEF_STEREO_COUNT>
0

> <PUBCHEM_ATOM_UDEF_STEREO_COUNT>
0

> <PUBCHEM_BOND_DEF_STEREO_COUNT>
0

> <PUBCHEM_BOND_UDEF_STEREO_COUNT>
0

> <PUBCHEM_ISOTOPIC_ATOM_COUNT>
0

> <PUBCHEM_COMPONENT_COUNT>
1

> <PUBCHEM_CACTVS_TAUTO_COUNT>
2

> <PUBCHEM_COORDINATE_TYPE>
1
5
255

> <PUBCHEM_BONDANNOTATIONS>
10  11  8
2  4  8
2  6  8
4  8  8
5  6  8
5  7  8
5  8  8
6  9  8
7  10  8
9  11  8

$$$$

