9122
  -OEChem-06261203252D

 38 43  0     0  0  0  0  0  0999 V2000
    4.7403   -0.1827    0.0000 C   0  0  0  0  0  0  0  0  0  0  0  0
    3.8743    0.3173    0.0000 C   0  0  0  0  0  0  0  0  0  0  0  0
    5.6063    0.3173    0.0000 C   0  0  0  0  0  0  0  0  0  0  0  0
    3.8743    1.3173    0.0000 C   0  0  0  0  0  0  0  0  0  0  0  0
    2.9643   -0.1896    0.0000 C   0  0  0  0  0  0  0  0  0  0  0  0
    4.7564   -1.2242    0.0000 C   0  0  0  0  0  0  0  0  0  0  0  0
    4.7403    1.8173    0.0000 C   0  0  0  0  0  0  0  0  0  0  0  0
    5.6063    1.3173    0.0000 C   0  0  0  0  0  0  0  0  0  0  0  0
    2.9562   -1.2312    0.0000 C   0  0  0  0  0  0  0  0  0  0  0  0
    3.8583   -1.7520    0.0000 C   0  0  0  0  0  0  0  0  0  0  0  0
    3.0161    1.8142    0.0000 C   0  0  0  0  0  0  0  0  0  0  0  0
    6.4658   -0.1775    0.0000 C   0  0  0  0  0  0  0  0  0  0  0  0
    2.1250    0.3387    0.0000 C   0  0  0  0  0  0  0  0  0  0  0  0
    5.6335   -1.6870    0.0000 C   0  0  0  0  0  0  0  0  0  0  0  0
    2.1506    1.3300    0.0000 C   0  0  0  0  0  0  0  0  0  0  0  0
    6.4792   -1.1691    0.0000 C   0  0  0  0  0  0  0  0  0  0  0  0
    4.7242    2.8588    0.0000 C   0  0  0  0  0  0  0  0  0  0  0  0
    6.5163    1.8241    0.0000 C   0  0  0  0  0  0  0  0  0  0  0  0
    2.0084   -1.7591    0.0000 C   0  0  0  0  0  0  0  0  0  0  0  0
    3.8751   -2.8368    0.0000 C   0  0  0  0  0  0  0  0  0  0  0  0
    6.5244    2.8657    0.0000 C   0  0  0  0  0  0  0  0  0  0  0  0
    5.6223    3.3866    0.0000 C   0  0  0  0  0  0  0  0  0  0  0  0
    2.9396   -3.3866    0.0000 C   0  0  0  0  0  0  0  0  0  0  0  0
    2.0000   -2.8441    0.0000 C   0  0  0  0  0  0  0  0  0  0  0  0
    7.0004    0.1365    0.0000 H   0  0  0  0  0  0  0  0  0  0  0  0
    3.0206    2.4342    0.0000 H   0  0  0  0  0  0  0  0  0  0  0  0
    5.6533   -2.3066    0.0000 H   0  0  0  0  0  0  0  0  0  0  0  0
    1.5784    0.0460    0.0000 H   0  0  0  0  0  0  0  0  0  0  0  0
    1.6199    1.6506    0.0000 H   0  0  0  0  0  0  0  0  0  0  0  0
    7.0222   -1.4685    0.0000 H   0  0  0  0  0  0  0  0  0  0  0  0
    4.1838    3.1626    0.0000 H   0  0  0  0  0  0  0  0  0  0  0  0
    7.0496    1.5079    0.0000 H   0  0  0  0  0  0  0  0  0  0  0  0
    1.4750   -1.4429    0.0000 H   0  0  0  0  0  0  0  0  0  0  0  0
    4.4155   -3.1406    0.0000 H   0  0  0  0  0  0  0  0  0  0  0  0
    7.0625    3.1737    0.0000 H   0  0  0  0  0  0  0  0  0  0  0  0
    5.6199    4.0066    0.0000 H   0  0  0  0  0  0  0  0  0  0  0  0
    2.9420   -4.0066    0.0000 H   0  0  0  0  0  0  0  0  0  0  0  0
    1.4619   -3.1520    0.0000 H   0  0  0  0  0  0  0  0  0  0  0  0
  1  2  1  0  0  0  0
  1  3  2  0  0  0  0
  1  6  1  0  0  0  0
  2  4  2  0  0  0  0
  2  5  1  0  0  0  0
  3  8  1  0  0  0  0
  3 12  1  0  0  0  0
  4  7  1  0  0  0  0
  4 11  1  0  0  0  0
  5  9  1  0  0  0  0
  5 13  2  0  0  0  0
  6 10  1  0  0  0  0
  6 14  2  0  0  0  0
  7  8  1  0  0  0  0
  7 17  2  0  0  0  0
  8 18  2  0  0  0  0
  9 10  1  0  0  0  0
  9 19  2  0  0  0  0
 10 20  2  0  0  0  0
 11 15  2  0  0  0  0
 11 26  1  0  0  0  0
 12 16  2  0  0  0  0
 12 25  1  0  0  0  0
 13 15  1  0  0  0  0
 13 28  1  0  0  0  0
 14 16  1  0  0  0  0
 14 27  1  0  0  0  0
 15 29  1  0  0  0  0
 16 30  1  0  0  0  0
 17 22  1  0  0  0  0
 17 31  1  0  0  0  0
 18 21  1  0  0  0  0
 18 32  1  0  0  0  0
 19 24  1  0  0  0  0
 19 33  1  0  0  0  0
 20 23  1  0  0  0  0
 20 34  1  0  0  0  0
 21 22  2  0  0  0  0
 21 35  1  0  0  0  0
 22 36  1  0  0  0  0
 23 24  2  0  0  0  0
 23 37  1  0  0  0  0
 24 38  1  0  0  0  0
M  END
> <PUBCHEM_COMPOUND_CID>
9122

> <PUBCHEM_COMPOUND_CANONICALIZED>
1

> <PUBCHEM_CACTVS_COMPLEXITY>
396

> <PUBCHEM_CACTVS_HBOND_ACCEPTOR>
0

> <PUBCHEM_CACTVS_HBOND_DONOR>
0

> <PUBCHEM_CACTVS_ROTATABLE_BOND>
0

> <PUBCHEM_CACTVS_SUBSKEYS>
AAADccB4AAAAAAAAAAAAAAAAAAAAAAAAAAAwYMGDAAAAAADBVAAAGAAAAAAADACAGAAwAMAAAACAAiBCAAACAAAgAAAIiAAAAIgIICKAERCAIAAggAAIiAcAgMAOwAACAAAQAACAAAQAACAAAAAAAAAAAA==

> <PUBCHEM_IUPAC_INCHI>
InChI=1S/C24H14/c1-2-8-16-15(7-1)19-11-5-13-21-17-9-3-4-10-18(17)22-14-6-12-20(16)24(22)23(19)21/h1-14H

> <PUBCHEM_IUPAC_INCHIKEY>
BMIAHKYKCHRGBA-UHFFFAOYSA-N

> <PUBCHEM_XLOGP3_AA>
6.2

> <PUBCHEM_EXACT_MASS>
302.10955

> <PUBCHEM_MOLECULAR_FORMULA>
C24H14

> <PUBCHEM_MOLECULAR_WEIGHT>
302.36796

> <PUBCHEM_OPENEYE_CAN_SMILES>
C1=CC=C2C3=C4C(=CC=C3)C5=CC=CC=C5C6=CC=CC(=C64)C2=C1

> <PUBCHEM_OPENEYE_ISO_SMILES>
C1=CC=C2C3=C4C(=CC=C3)C5=CC=CC=C5C6=CC=CC(=C64)C2=C1

> <PUBCHEM_CACTVS_TPSA>
0

> <PUBCHEM_MONOISOTOPIC_WEIGHT>
302.10955

> <PUBCHEM_TOTAL_CHARGE>
0

> <PUBCHEM_HEAVY_ATOM_COUNT>
24

> <PUBCHEM_ATOM_DEF_STEREO_COUNT>
0

> <PUBCHEM_ATOM_UDEF_STEREO_COUNT>
0

> <PUBCHEM_BOND_DEF_STEREO_COUNT>
0

> <PUBCHEM_BOND_UDEF_STEREO_COUNT>
0

> <PUBCHEM_ISOTOPIC_ATOM_COUNT>
0

> <PUBCHEM_COMPONENT_COUNT>
1

> <PUBCHEM_CACTVS_TAUTO_COUNT>
1

> <PUBCHEM_COORDINATE_TYPE>
1
5
255

> <PUBCHEM_BONDANNOTATIONS>
1  2  8
1  3  8
1  6  8
10  20  8
11  15  8
12  16  8
13  15  8
14  16  8
17  22  8
18  21  8
19  24  8
2  4  8
2  5  8
20  23  8
21  22  8
23  24  8
3  12  8
3  8  8
4  11  8
4  7  8
5  13  8
5  9  8
6  10  8
6  14  8
7  17  8
7  8  8
8  18  8
9  10  8
9  19  8

$$$$

