6684
  -OEChem-06261201272D

 30 32  0     0  0  0  0  0  0999 V2000
    4.6660   -2.4273    0.0000 O   0  0  0  0  0  0  0  0  0  0  0  0
    4.6660    1.5727    0.0000 O   0  0  0  0  0  0  0  0  0  0  0  0
    6.4144   -2.4619    0.0000 O   0  0  0  0  0  0  0  0  0  0  0  0
    2.9176   -2.4619    0.0000 O   0  0  0  0  0  0  0  0  0  0  0  0
    7.2746    2.1173    0.0000 O   0  0  0  0  0  0  0  0  0  0  0  0
    5.5427    2.0973    0.0000 O   0  0  0  0  0  0  0  0  0  0  0  0
    2.0574    2.1173    0.0000 O   0  5  0  0  0  0  0  0  0  0  0  0
    3.7894    2.0973    0.0000 O   0  5  0  0  0  0  0  0  0  0  0  0
    6.4144    1.6073    0.0000 N   0  3  0  0  0  0  0  0  0  0  0  0
    2.9176    1.6073    0.0000 N   0  3  0  0  0  0  0  0  0  0  0  0
    5.5321    0.0727    0.0000 C   0  0  0  0  0  0  0  0  0  0  0  0
    3.8000    0.0727    0.0000 C   0  0  0  0  0  0  0  0  0  0  0  0
    5.5321   -0.9273    0.0000 C   0  0  0  0  0  0  0  0  0  0  0  0
    3.8000   -0.9273    0.0000 C   0  0  0  0  0  0  0  0  0  0  0  0
    4.6660   -1.4273    0.0000 C   0  0  0  0  0  0  0  0  0  0  0  0
    4.6660    0.5727    0.0000 C   0  0  0  0  0  0  0  0  0  0  0  0
    6.4260    0.6074    0.0000 C   0  0  0  0  0  0  0  0  0  0  0  0
    2.9061    0.6074    0.0000 C   0  0  0  0  0  0  0  0  0  0  0  0
    6.4260   -1.4619    0.0000 C   0  0  0  0  0  0  0  0  0  0  0  0
    2.9061   -1.4619    0.0000 C   0  0  0  0  0  0  0  0  0  0  0  0
    7.3321    0.0935    0.0000 C   0  0  0  0  0  0  0  0  0  0  0  0
    2.0000    0.0935    0.0000 C   0  0  0  0  0  0  0  0  0  0  0  0
    7.3321   -0.9481    0.0000 C   0  0  0  0  0  0  0  0  0  0  0  0
    2.0000   -0.9481    0.0000 C   0  0  0  0  0  0  0  0  0  0  0  0
    7.8678    0.4056    0.0000 H   0  0  0  0  0  0  0  0  0  0  0  0
    1.4643    0.4056    0.0000 H   0  0  0  0  0  0  0  0  0  0  0  0
    7.8678   -1.2601    0.0000 H   0  0  0  0  0  0  0  0  0  0  0  0
    1.4643   -1.2601    0.0000 H   0  0  0  0  0  0  0  0  0  0  0  0
    4.1291   -2.7373    0.0000 H   0  0  0  0  0  0  0  0  0  0  0  0
    7.2675    2.7373    0.0000 H   0  0  0  0  0  0  0  0  0  0  0  0
  1 15  1  0  0  0  0
  1 29  1  0  0  0  0
  2 16  2  0  0  0  0
  3 19  2  0  0  0  0
  4 20  2  0  0  0  0
  5  9  1  0  0  0  0
  5 30  1  0  0  0  0
  6  9  2  0  0  0  0
  7 10  1  0  0  0  0
  8 10  1  0  0  0  0
  9 17  1  0  0  0  0
 10 18  2  0  0  0  0
 11 13  1  0  0  0  0
 11 16  1  0  0  0  0
 11 17  2  0  0  0  0
 12 14  2  0  0  0  0
 12 16  1  0  0  0  0
 12 18  1  0  0  0  0
 13 15  2  0  0  0  0
 13 19  1  0  0  0  0
 14 15  1  0  0  0  0
 14 20  1  0  0  0  0
 17 21  1  0  0  0  0
 18 22  1  0  0  0  0
 19 23  1  0  0  0  0
 20 24  1  0  0  0  0
 21 23  2  0  0  0  0
 21 25  1  0  0  0  0
 22 24  2  0  0  0  0
 22 26  1  0  0  0  0
 23 27  1  0  0  0  0
 24 28  1  0  0  0  0
M  CHG  4   7  -1   8  -1   9   1  10   1
M  END
> <PUBCHEM_COMPOUND_CID>
6684

> <PUBCHEM_COMPOUND_CANONICALIZED>
1

> <PUBCHEM_CACTVS_COMPLEXITY>
951

> <PUBCHEM_CACTVS_HBOND_ACCEPTOR>
8

> <PUBCHEM_CACTVS_HBOND_DONOR>
2

> <PUBCHEM_CACTVS_ROTATABLE_BOND>
1

> <PUBCHEM_CACTVS_SUBSKEYS>
AAADcYBzPAAAAAAAAAAAAAAAAAAAAAAAAAAgQIAAAAAAAACAAAAAHgAECAAADAyBgAAAAAAQQgCpA6RyQwCAAAAgIAAoCAEwAFgIBBYAAAAAUAAEoAAIkcMJiICAAAAAAAAAAAAAAAAAAAAAAAAAAAAAAA==

> <PUBCHEM_IUPAC_OPENEYE_NAME>
(8-dioxidoiminio-10-hydroxy-4,5,9-trioxo-1-anthryl)-hydroxy-oxo-ammonium

> <PUBCHEM_IUPAC_CAS_NAME>
(8-dioxidoiminio-10-hydroxy-4,5,9-trioxo-1-anthracenyl)-hydroxy-oxoammonium

> <PUBCHEM_IUPAC_NAME>
(8-dioxidoazaniumylidene-10-hydroxy-4,5,9-trioxoanthracen-1-yl)-hydroxy-oxoazanium

> <PUBCHEM_IUPAC_SYSTEMATIC_NAME>
bis(oxidanidyl)-[10-oxidanyl-4,5,9-tris(oxidanylidene)-8-[oxidanyl(oxidanylidene)azaniumyl]anthracen-1-ylidene]azanium

> <PUBCHEM_IUPAC_TRADITIONAL_NAME>
(8-dioxidoiminio-10-hydroxy-4,5,9-triketo-1-anthryl)-hydroxy-keto-ammonium

> <PUBCHEM_IUPAC_INCHI>
InChI=1S/C14H6N2O8/c17-7-3-1-5(15(21)22)9-11(7)14(20)12-8(18)4-2-6(16(23)24)10(12)13(9)19/h1-4H,(H2-,17,18,20,21,22,23,24)

> <PUBCHEM_IUPAC_INCHIKEY>
XGKGIXQNAQTOLJ-UHFFFAOYSA-N

> <PUBCHEM_XLOGP3_AA>
-1.1

> <PUBCHEM_EXACT_MASS>
330.012415

> <PUBCHEM_MOLECULAR_FORMULA>
C14H6N2O8

> <PUBCHEM_MOLECULAR_WEIGHT>
330.20604

> <PUBCHEM_OPENEYE_CAN_SMILES>
C1=CC(=O)C2=C(C3=C(C(=[N+]([O-])[O-])C=CC3=O)C(=O)C2=C1[N+](=O)O)O

> <PUBCHEM_OPENEYE_ISO_SMILES>
C1=CC(=O)C2=C(C3=C(C(=[N+]([O-])[O-])C=CC3=O)C(=O)C2=C1[N+](=O)O)O

> <PUBCHEM_CACTVS_TPSA>
158

> <PUBCHEM_MONOISOTOPIC_WEIGHT>
330.012415

> <PUBCHEM_TOTAL_CHARGE>
0

> <PUBCHEM_HEAVY_ATOM_COUNT>
24

> <PUBCHEM_ATOM_DEF_STEREO_COUNT>
0

> <PUBCHEM_ATOM_UDEF_STEREO_COUNT>
0

> <PUBCHEM_BOND_DEF_STEREO_COUNT>
0

> <PUBCHEM_BOND_UDEF_STEREO_COUNT>
0

> <PUBCHEM_ISOTOPIC_ATOM_COUNT>
0

> <PUBCHEM_COMPONENT_COUNT>
1

> <PUBCHEM_CACTVS_TAUTO_COUNT>
4

> <PUBCHEM_COORDINATE_TYPE>
1
5
255

> <PUBCHEM_BONDANNOTATIONS>
11  16  8
11  17  8
12  16  8
12  18  8
13  15  8
13  19  8
14  15  8
14  20  8
17  21  8
18  22  8
19  23  8
20  24  8
21  23  8
22  24  8

$$$$

