17395918
  -OEChem-06241222532D

 40 41  0     0  0  0  0  0  0999 V2000
    2.0000    3.5600    0.0000 Br  0  0  0  0  0  0  0  0  0  0  0  0
    4.5981    0.0600    0.0000 O   0  0  0  0  0  0  0  0  0  0  0  0
    8.0622    0.0600    0.0000 O   0  0  0  0  0  0  0  0  0  0  0  0
    8.0622   -2.9400    0.0000 N   0  0  0  0  0  0  0  0  0  0  0  0
    5.4641    1.5600    0.0000 N   0  0  0  0  0  0  0  0  0  0  0  0
    8.9282   -1.4400    0.0000 N   0  0  0  0  0  0  0  0  0  0  0  0
    6.3301   -0.9400    0.0000 C   0  0  0  0  0  0  0  0  0  0  0  0
    7.1962   -1.4400    0.0000 C   0  0  0  0  0  0  0  0  0  0  0  0
    6.3301    0.0600    0.0000 C   0  0  0  0  0  0  0  0  0  0  0  0
    7.1962   -2.4400    0.0000 C   0  0  0  0  0  0  0  0  0  0  0  0
    5.4641    0.5600    0.0000 C   0  0  0  0  0  0  0  0  0  0  0  0
    8.0622   -0.9400    0.0000 C   0  0  0  0  0  0  0  0  0  0  0  0
    8.9282   -2.4400    0.0000 C   0  0  0  0  0  0  0  0  0  0  0  0
    6.3301   -2.9400    0.0000 C   0  0  0  0  0  0  0  0  0  0  0  0
    4.5981    2.0600    0.0000 C   0  0  0  0  0  0  0  0  0  0  0  0
    4.5981    3.0600    0.0000 C   0  0  0  0  0  0  0  0  0  0  0  0
    3.7320    1.5600    0.0000 C   0  0  0  0  0  0  0  0  0  0  0  0
    9.7942   -2.9400    0.0000 C   0  0  0  0  0  0  0  0  0  0  0  0
    3.7320    3.5600    0.0000 C   0  0  0  0  0  0  0  0  0  0  0  0
    5.4641    3.5600    0.0000 C   0  0  0  0  0  0  0  0  0  0  0  0
    2.8660    2.0600    0.0000 C   0  0  0  0  0  0  0  0  0  0  0  0
    2.8660    3.0600    0.0000 C   0  0  0  0  0  0  0  0  0  0  0  0
    5.7196   -0.8323    0.0000 H   0  0  0  0  0  0  0  0  0  0  0  0
    6.1181   -1.5226    0.0000 H   0  0  0  0  0  0  0  0  0  0  0  0
    6.9407   -0.0477    0.0000 H   0  0  0  0  0  0  0  0  0  0  0  0
    6.5422    0.6426    0.0000 H   0  0  0  0  0  0  0  0  0  0  0  0
    8.0622   -3.5600    0.0000 H   0  0  0  0  0  0  0  0  0  0  0  0
    6.0201   -2.4031    0.0000 H   0  0  0  0  0  0  0  0  0  0  0  0
    5.7932   -3.2500    0.0000 H   0  0  0  0  0  0  0  0  0  0  0  0
    6.6401   -3.4769    0.0000 H   0  0  0  0  0  0  0  0  0  0  0  0
    6.0010    1.8700    0.0000 H   0  0  0  0  0  0  0  0  0  0  0  0
    3.7320    0.9400    0.0000 H   0  0  0  0  0  0  0  0  0  0  0  0
    9.4842   -3.4769    0.0000 H   0  0  0  0  0  0  0  0  0  0  0  0
   10.3312   -3.2500    0.0000 H   0  0  0  0  0  0  0  0  0  0  0  0
   10.1042   -2.4031    0.0000 H   0  0  0  0  0  0  0  0  0  0  0  0
    3.7320    4.1800    0.0000 H   0  0  0  0  0  0  0  0  0  0  0  0
    5.7741    3.0231    0.0000 H   0  0  0  0  0  0  0  0  0  0  0  0
    6.0010    3.8700    0.0000 H   0  0  0  0  0  0  0  0  0  0  0  0
    5.1541    4.0969    0.0000 H   0  0  0  0  0  0  0  0  0  0  0  0
    2.3291    1.7500    0.0000 H   0  0  0  0  0  0  0  0  0  0  0  0
  1 22  1  0  0  0  0
  2 11  2  0  0  0  0
  3 12  2  0  0  0  0
  4 10  1  0  0  0  0
  4 13  1  0  0  0  0
  4 27  1  0  0  0  0
  5 11  1  0  0  0  0
  5 15  1  0  0  0  0
  5 31  1  0  0  0  0
  6 12  1  0  0  0  0
  6 13  2  0  0  0  0
  7  8  1  0  0  0  0
  7  9  1  0  0  0  0
  7 23  1  0  0  0  0
  7 24  1  0  0  0  0
  8 10  2  0  0  0  0
  8 12  1  0  0  0  0
  9 11  1  0  0  0  0
  9 25  1  0  0  0  0
  9 26  1  0  0  0  0
 10 14  1  0  0  0  0
 13 18  1  0  0  0  0
 14 28  1  0  0  0  0
 14 29  1  0  0  0  0
 14 30  1  0  0  0  0
 15 16  2  0  0  0  0
 15 17  1  0  0  0  0
 16 19  1  0  0  0  0
 16 20  1  0  0  0  0
 17 21  2  0  0  0  0
 17 32  1  0  0  0  0
 18 33  1  0  0  0  0
 18 34  1  0  0  0  0
 18 35  1  0  0  0  0
 19 22  2  0  0  0  0
 19 36  1  0  0  0  0
 20 37  1  0  0  0  0
 20 38  1  0  0  0  0
 20 39  1  0  0  0  0
 21 22  1  0  0  0  0
 21 40  1  0  0  0  0
M  END
> <PUBCHEM_COMPOUND_CID>
17395918

> <PUBCHEM_COMPOUND_CANONICALIZED>
1

> <PUBCHEM_CACTVS_COMPLEXITY>
528

> <PUBCHEM_CACTVS_HBOND_ACCEPTOR>
2

> <PUBCHEM_CACTVS_HBOND_DONOR>
2

> <PUBCHEM_CACTVS_ROTATABLE_BOND>
4

> <PUBCHEM_CACTVS_SUBSKEYS>
AAADceB7MAAAEAAAAAAAAAAAAAAAAAAAAAAwQAAAAAAAAAABAAAAHgBQAAABrAiBmAAzwILAAACoAidydACCAAEhAgQJiAEQZOgIIDLAmZGEIAhglADIy1cYgwAOAAAgEAACAAAAAEAgAAQAAAAAAAAAAA==

> <PUBCHEM_IUPAC_OPENEYE_NAME>
N-(4-bromo-2-methyl-phenyl)-3-(2,6-dimethyl-4-oxo-1H-pyrimidin-5-yl)propanamide

> <PUBCHEM_IUPAC_CAS_NAME>
N-(4-bromo-2-methylphenyl)-3-(2,6-dimethyl-4-oxo-1H-pyrimidin-5-yl)propanamide

> <PUBCHEM_IUPAC_NAME>
N-(4-bromo-2-methylphenyl)-3-(2,6-dimethyl-4-oxo-1H-pyrimidin-5-yl)propanamide

> <PUBCHEM_IUPAC_SYSTEMATIC_NAME>
N-(4-bromanyl-2-methyl-phenyl)-3-(2,6-dimethyl-4-oxidanylidene-1H-pyrimidin-5-yl)propanamide

> <PUBCHEM_IUPAC_TRADITIONAL_NAME>
N-(4-bromo-2-methyl-phenyl)-3-(4-keto-2,6-dimethyl-1H-pyrimidin-5-yl)propionamide

> <PUBCHEM_IUPAC_INCHI>
InChI=1S/C16H18BrN3O2/c1-9-8-12(17)4-6-14(9)20-15(21)7-5-13-10(2)18-11(3)19-16(13)22/h4,6,8H,5,7H2,1-3H3,(H,20,21)(H,18,19,22)

> <PUBCHEM_IUPAC_INCHIKEY>
YEEDSUNGUYNMDU-UHFFFAOYSA-N

> <PUBCHEM_XLOGP3_AA>
1.8

> <PUBCHEM_EXACT_MASS>
363.058239

> <PUBCHEM_MOLECULAR_FORMULA>
C16H18BrN3O2

> <PUBCHEM_MOLECULAR_WEIGHT>
364.23702

> <PUBCHEM_OPENEYE_CAN_SMILES>
CC1=C(C=CC(=C1)Br)NC(=O)CCC2=C(NC(=NC2=O)C)C

> <PUBCHEM_OPENEYE_ISO_SMILES>
CC1=C(C=CC(=C1)Br)NC(=O)CCC2=C(NC(=NC2=O)C)C

> <PUBCHEM_CACTVS_TPSA>
70.6

> <PUBCHEM_MONOISOTOPIC_WEIGHT>
363.058239

> <PUBCHEM_TOTAL_CHARGE>
0

> <PUBCHEM_HEAVY_ATOM_COUNT>
22

> <PUBCHEM_ATOM_DEF_STEREO_COUNT>
0

> <PUBCHEM_ATOM_UDEF_STEREO_COUNT>
0

> <PUBCHEM_BOND_DEF_STEREO_COUNT>
0

> <PUBCHEM_BOND_UDEF_STEREO_COUNT>
0

> <PUBCHEM_ISOTOPIC_ATOM_COUNT>
0

> <PUBCHEM_COMPONENT_COUNT>
1

> <PUBCHEM_CACTVS_TAUTO_COUNT>
9

> <PUBCHEM_COORDINATE_TYPE>
1
5
255

> <PUBCHEM_BONDANNOTATIONS>
15  16  8
15  17  8
16  19  8
17  21  8
19  22  8
21  22  8
4  10  8
4  13  8
6  12  8
6  13  8
8  10  8
8  12  8

$$$$

