17395393
  -OEChem-06241222503D

 36 36  0     1  0  0  0  0  0999 V2000
    0.2665   -0.9814    0.7392 O   0  0  0  0  0  0  0  0  0  0  0  0
   -1.8176    0.5548    1.3757 O   0  0  0  0  0  0  0  0  0  0  0  0
   -2.7991    0.3328   -0.7164 N   0  0  0  0  0  0  0  0  0  0  0  0
    6.5473    1.0941   -0.6107 N   0  0  0  0  0  0  0  0  0  0  0  0
   -5.1266    0.3253    0.1059 C   0  0  0  0  0  0  0  0  0  0  0  0
   -3.9566    1.1436   -0.4518 C   0  0  0  0  0  0  0  0  0  0  0  0
   -5.5352   -0.7552   -0.8959 C   0  0  0  0  0  0  0  0  0  0  0  0
   -6.3291    1.2124    0.4363 C   0  0  0  0  0  0  0  0  0  0  0  0
   -0.7027   -0.8059   -0.2807 C   0  0  2  0  0  0  0  0  0  0  0  0
   -1.8109    0.1021    0.2330 C   0  0  0  0  0  0  0  0  0  0  0  0
   -1.2463   -2.1740   -0.6608 C   0  0  0  0  0  0  0  0  0  0  0  0
    1.5428   -0.5598    0.4632 C   0  0  0  0  0  0  0  0  0  0  0  0
    1.7838    0.7791    0.1553 C   0  0  0  0  0  0  0  0  0  0  0  0
    2.5995   -1.4700    0.4922 C   0  0  0  0  0  0  0  0  0  0  0  0
    3.0813    1.2080   -0.1236 C   0  0  0  0  0  0  0  0  0  0  0  0
    3.8971   -1.0411    0.2132 C   0  0  0  0  0  0  0  0  0  0  0  0
    4.1381    0.2979   -0.0945 C   0  0  0  0  0  0  0  0  0  0  0  0
    5.4676    0.7372   -0.3795 C   0  0  0  0  0  0  0  0  0  0  0  0
   -4.8065   -0.1726    1.0302 H   0  0  0  0  0  0  0  0  0  0  0  0
   -3.6815    1.9339    0.2559 H   0  0  0  0  0  0  0  0  0  0  0  0
   -4.2359    1.6267   -1.3950 H   0  0  0  0  0  0  0  0  0  0  0  0
   -4.7242   -1.4694   -1.0715 H   0  0  0  0  0  0  0  0  0  0  0  0
   -6.3917   -1.3255   -0.5200 H   0  0  0  0  0  0  0  0  0  0  0  0
   -5.8201   -0.3189   -1.8595 H   0  0  0  0  0  0  0  0  0  0  0  0
   -7.1484    0.6188    0.8553 H   0  0  0  0  0  0  0  0  0  0  0  0
   -6.0554    1.9741    1.1738 H   0  0  0  0  0  0  0  0  0  0  0  0
   -6.7020    1.7243   -0.4574 H   0  0  0  0  0  0  0  0  0  0  0  0
   -2.6995   -0.0584   -1.6482 H   0  0  0  0  0  0  0  0  0  0  0  0
   -0.2739   -0.3416   -1.1793 H   0  0  0  0  0  0  0  0  0  0  0  0
   -1.7650   -2.6360    0.1872 H   0  0  0  0  0  0  0  0  0  0  0  0
   -0.4283   -2.8484   -0.9371 H   0  0  0  0  0  0  0  0  0  0  0  0
   -1.9469   -2.1265   -1.4995 H   0  0  0  0  0  0  0  0  0  0  0  0
    0.9720    1.5012    0.1383 H   0  0  0  0  0  0  0  0  0  0  0  0
    2.4172   -2.5142    0.7312 H   0  0  0  0  0  0  0  0  0  0  0  0
    3.2537    2.2553   -0.3598 H   0  0  0  0  0  0  0  0  0  0  0  0
    4.7103   -1.7625    0.2398 H   0  0  0  0  0  0  0  0  0  0  0  0
  1  9  1  0  0  0  0
  1 12  1  0  0  0  0
  2 10  2  0  0  0  0
  3  6  1  0  0  0  0
  3 10  1  0  0  0  0
  3 28  1  0  0  0  0
  4 18  3  0  0  0  0
  5  6  1  0  0  0  0
  5  7  1  0  0  0  0
  5  8  1  0  0  0  0
  5 19  1  0  0  0  0
  6 20  1  0  0  0  0
  6 21  1  0  0  0  0
  7 22  1  0  0  0  0
  7 23  1  0  0  0  0
  7 24  1  0  0  0  0
  8 25  1  0  0  0  0
  8 26  1  0  0  0  0
  8 27  1  0  0  0  0
  9 10  1  0  0  0  0
  9 11  1  0  0  0  0
  9 29  1  0  0  0  0
 11 30  1  0  0  0  0
 11 31  1  0  0  0  0
 11 32  1  0  0  0  0
 12 13  2  0  0  0  0
 12 14  1  0  0  0  0
 13 15  1  0  0  0  0
 13 33  1  0  0  0  0
 14 16  2  0  0  0  0
 14 34  1  0  0  0  0
 15 17  2  0  0  0  0
 15 35  1  0  0  0  0
 16 17  1  0  0  0  0
 16 36  1  0  0  0  0
 17 18  1  0  0  0  0
M  END
> <PUBCHEM_COMPOUND_CID>
17395393

> <PUBCHEM_CONFORMER_RMSD>
0.8

> <PUBCHEM_CONFORMER_DIVERSEORDER>
1
90
68
100
65
12
60
76
101
56
24
80
81
59
57
83
73
54
23
39
36
25
32
64
96
87
53
97
70
98
45
42
46
27
11
67
22
14
55
17
50
66
58
21
78
91
19
34
93
40
62
48
28
102
82
47
75
95
61
9
79
89
13
44
29
33
86
6
15
99
43
38
41
69
88
51
30
18
74
31
37
35
94
49
92
26
85
5
52
16
77
4
2
71
10
3
63
72
8
20
84
7

> <PUBCHEM_MMFF94_PARTIAL_CHARGES>
19
1 -0.36
10 0.57
12 0.08
13 -0.15
14 -0.15
15 -0.15
16 -0.15
17 0.07
18 0.48
2 -0.57
28 0.37
3 -0.73
33 0.15
34 0.15
35 0.15
36 0.15
4 -0.56
6 0.3
9 0.34

> <PUBCHEM_EFFECTIVE_ROTOR_COUNT>
6

> <PUBCHEM_PHARMACOPHORE_FEATURES>
6
1 1 acceptor
1 2 acceptor
1 3 donor
1 4 acceptor
3 5 7 8 hydrophobe
6 12 13 14 15 16 17 rings

> <PUBCHEM_HEAVY_ATOM_COUNT>
18

> <PUBCHEM_ATOM_DEF_STEREO_COUNT>
0

> <PUBCHEM_ATOM_UDEF_STEREO_COUNT>
1

> <PUBCHEM_BOND_DEF_STEREO_COUNT>
0

> <PUBCHEM_BOND_UDEF_STEREO_COUNT>
0

> <PUBCHEM_ISOTOPIC_ATOM_COUNT>
0

> <PUBCHEM_COMPONENT_COUNT>
1

> <PUBCHEM_CACTVS_TAUTO_COUNT>
2

> <PUBCHEM_CONFORMER_ID>
01096EC100000001

> <PUBCHEM_MMFF94_ENERGY>
36.9376

> <PUBCHEM_FEATURE_SELFOVERLAP>
30.454

> <PUBCHEM_SHAPE_FINGERPRINT>
100836 57 18131067121913093852
10354089 29 17203889661114445380
106641 1 14620503498104988044
12236239 1 18333733532754797291
12730499 353 18059568122378600866
12788726 201 17458621267488367497
12916748 109 18408600396139513516
13533116 47 17822010968960599182
14123256 10 18411985737492948103
14251718 22 18334295353115982687
14251752 14 15430311472872703885
15048467 5 18272650130573593316
17834072 33 18408889529069163343
17834072 8 18335412479280255142
18006028 8 10231755574317522135
187816 3 17385442120308884819
19489759 90 12607406598765098141
20281389 69 17989491818783113340
20645477 56 18342179942392985934
20645477 70 18341334508752752986
20871999 31 18188217489656529263
22224240 67 15339117914082774856
23402539 116 17821733831795031165
23402655 69 18410014321243825598
23559900 14 17241054206342083856
26918003 58 8214140763453874469
293599 30 18413670206096140820
29717793 49 17676481774898265092
3545911 37 18410855447596713778
4072396 5 18343032090813682474
4325135 7 18411420588495237287
542803 24 18113621200753018169
69474 34 14476957865626515583

> <PUBCHEM_SHAPE_MULTIPOLES>
348.73
14.93
1.6
0.88
4.08
0.53
0.06
-6.09
-2.29
-0.06
-0.13
0.34
0.03
-1

> <PUBCHEM_SHAPE_SELFOVERLAP>
705.632

> <PUBCHEM_SHAPE_VOLUME>
202.4

> <PUBCHEM_COORDINATE_TYPE>
2
5
10

$$$$

