10869
  -OEChem-06261205033D

 19 19  0     0  0  0  0  0  0999 V2000
    2.3133   -0.0001   -0.5284 O   0  0  0  0  0  0  0  0  0  0  0  0
    0.0969    0.0001    0.3343 C   0  0  0  0  0  0  0  0  0  0  0  0
    1.5499    0.0002    0.6716 C   0  0  0  0  0  0  0  0  0  0  0  0
   -0.5826    1.2080    0.1766 C   0  0  0  0  0  0  0  0  0  0  0  0
   -0.5823   -1.2079    0.1768 C   0  0  0  0  0  0  0  0  0  0  0  0
   -1.9414    1.2079   -0.1384 C   0  0  0  0  0  0  0  0  0  0  0  0
   -1.9412   -1.2081   -0.1383 C   0  0  0  0  0  0  0  0  0  0  0  0
   -2.6207   -0.0001   -0.2959 C   0  0  0  0  0  0  0  0  0  0  0  0
    3.7081    0.0000   -0.2583 C   0  0  0  0  0  0  0  0  0  0  0  0
    1.7994    0.8842    1.2721 H   0  0  0  0  0  0  0  0  0  0  0  0
    1.7994   -0.8834    1.2727 H   0  0  0  0  0  0  0  0  0  0  0  0
   -0.0641    2.1558    0.2947 H   0  0  0  0  0  0  0  0  0  0  0  0
   -0.0638   -2.1557    0.2950 H   0  0  0  0  0  0  0  0  0  0  0  0
   -2.4705    2.1484   -0.2617 H   0  0  0  0  0  0  0  0  0  0  0  0
   -2.4701   -2.1487   -0.2615 H   0  0  0  0  0  0  0  0  0  0  0  0
   -3.6786   -0.0003   -0.5415 H   0  0  0  0  0  0  0  0  0  0  0  0
    4.2434   -0.0002   -1.2116 H   0  0  0  0  0  0  0  0  0  0  0  0
    3.9908   -0.8972    0.3009 H   0  0  0  0  0  0  0  0  0  0  0  0
    3.9908    0.8975    0.3003 H   0  0  0  0  0  0  0  0  0  0  0  0
  1  3  1  0  0  0  0
  1  9  1  0  0  0  0
  2  3  1  0  0  0  0
  2  4  2  0  0  0  0
  2  5  1  0  0  0  0
  3 10  1  0  0  0  0
  3 11  1  0  0  0  0
  4  6  1  0  0  0  0
  4 12  1  0  0  0  0
  5  7  2  0  0  0  0
  5 13  1  0  0  0  0
  6  8  2  0  0  0  0
  6 14  1  0  0  0  0
  7  8  1  0  0  0  0
  7 15  1  0  0  0  0
  8 16  1  0  0  0  0
  9 17  1  0  0  0  0
  9 18  1  0  0  0  0
  9 19  1  0  0  0  0
M  END
> <PUBCHEM_COMPOUND_CID>
10869

> <PUBCHEM_CONFORMER_RMSD>
0.4

> <PUBCHEM_CONFORMER_DIVERSEORDER>
1
3
2

> <PUBCHEM_MMFF94_PARTIAL_CHARGES>
14
1 -0.56
12 0.15
13 0.15
14 0.15
15 0.15
16 0.15
2 -0.14
3 0.42
4 -0.15
5 -0.15
6 -0.15
7 -0.15
8 -0.15
9 0.28

> <PUBCHEM_EFFECTIVE_ROTOR_COUNT>
2

> <PUBCHEM_PHARMACOPHORE_FEATURES>
2
1 1 acceptor
6 2 4 5 6 7 8 rings

> <PUBCHEM_HEAVY_ATOM_COUNT>
9

> <PUBCHEM_ATOM_DEF_STEREO_COUNT>
0

> <PUBCHEM_ATOM_UDEF_STEREO_COUNT>
0

> <PUBCHEM_BOND_DEF_STEREO_COUNT>
0

> <PUBCHEM_BOND_UDEF_STEREO_COUNT>
0

> <PUBCHEM_ISOTOPIC_ATOM_COUNT>
0

> <PUBCHEM_COMPONENT_COUNT>
1

> <PUBCHEM_CACTVS_TAUTO_COUNT>
1

> <PUBCHEM_CONFORMER_ID>
00002A7500000001

> <PUBCHEM_MMFF94_ENERGY>
22.4144

> <PUBCHEM_FEATURE_SELFOVERLAP>
10.148

> <PUBCHEM_SHAPE_FINGERPRINT>
12716758 59 18408889550675946690
12897270 3 18409730651396213518
13024252 1 17561079198630417107
14128692 85 18267584602677884261
14325111 11 18412263977805344696
16714656 1 18410576184427901305
16945 1 18338811069194209283
20201158 50 17894909646338296030
20645464 45 17823441351703934442
20653085 51 18059844104113024148
21040471 1 18194133021343538041
21293036 1 18341057354264637837
23235685 24 18410579530281440325
23552423 10 18200316489743281056
2748010 2 18051146791328292003
29004967 10 16298386850926091586
369184 2 18410013234258215226

> <PUBCHEM_SHAPE_MULTIPOLES>
179.35
4.63
1.28
0.72
4.32
0
-0.03
0
0.89
-0.82
-0.02
0.13
0
0

> <PUBCHEM_SHAPE_SELFOVERLAP>
361.765

> <PUBCHEM_SHAPE_VOLUME>
106.1

> <PUBCHEM_COORDINATE_TYPE>
2
5
10

$$$$

