17395501
  -OEChem-06241222503D

 45 46  0     0  0  0  0  0  0999 V2000
    0.6798    1.9046   -0.7436 O   0  0  0  0  0  0  0  0  0  0  0  0
   -4.6312    0.9675    1.1293 O   0  0  0  0  0  0  0  0  0  0  0  0
   -5.3040   -0.8509   -0.0941 O   0  0  0  0  0  0  0  0  0  0  0  0
    1.5004   -0.2030   -1.1526 N   0  0  0  0  0  0  0  0  0  0  0  0
   -1.0950   -1.2453   -0.6349 N   0  0  0  0  0  0  0  0  0  0  0  0
    3.6985    0.2655   -0.2048 C   0  0  0  0  0  0  0  0  0  0  0  0
    5.0990    0.8021   -0.5303 C   0  0  0  0  0  0  0  0  0  0  0  0
    3.7822   -1.1254    0.4385 C   0  0  0  0  0  0  0  0  0  0  0  0
    6.0036    0.7996    0.6999 C   0  0  0  0  0  0  0  0  0  0  0  0
    4.6889   -1.1244    1.6673 C   0  0  0  0  0  0  0  0  0  0  0  0
    6.0772   -0.5823    1.3418 C   0  0  0  0  0  0  0  0  0  0  0  0
    2.8301    0.2274   -1.4609 C   0  0  0  0  0  0  0  0  0  0  0  0
    0.4798    0.6900   -0.8032 C   0  0  0  0  0  0  0  0  0  0  0  0
   -0.8409    0.0984   -0.5467 C   0  0  0  0  0  0  0  0  0  0  0  0
   -2.0134    0.7270   -0.1897 C   0  0  0  0  0  0  0  0  0  0  0  0
   -3.0073   -0.2742   -0.0585 C   0  0  0  0  0  0  0  0  0  0  0  0
   -2.4117   -1.4841   -0.3389 C   0  0  0  0  0  0  0  0  0  0  0  0
   -2.2017    2.1784    0.0180 C   0  0  0  0  0  0  0  0  0  0  0  0
   -2.9567   -2.8556   -0.3584 C   0  0  0  0  0  0  0  0  0  0  0  0
   -4.3881   -0.1075    0.2979 C   0  0  0  0  0  0  0  0  0  0  0  0
   -5.9894    1.1923    1.5241 C   0  0  0  0  0  0  0  0  0  0  0  0
    3.2340    0.9465    0.5222 H   0  0  0  0  0  0  0  0  0  0  0  0
    5.0263    1.8235   -0.9226 H   0  0  0  0  0  0  0  0  0  0  0  0
    5.5590    0.1911   -1.3175 H   0  0  0  0  0  0  0  0  0  0  0  0
    2.7888   -1.4731    0.7445 H   0  0  0  0  0  0  0  0  0  0  0  0
    4.1639   -1.8523   -0.2899 H   0  0  0  0  0  0  0  0  0  0  0  0
    7.0100    1.1288    0.4176 H   0  0  0  0  0  0  0  0  0  0  0  0
    5.6247    1.5228    1.4326 H   0  0  0  0  0  0  0  0  0  0  0  0
    4.7747   -2.1429    2.0625 H   0  0  0  0  0  0  0  0  0  0  0  0
    4.2337   -0.5129    2.4561 H   0  0  0  0  0  0  0  0  0  0  0  0
    6.5885   -1.2741    0.6609 H   0  0  0  0  0  0  0  0  0  0  0  0
    6.6778   -0.5327    2.2569 H   0  0  0  0  0  0  0  0  0  0  0  0
    2.7919    1.2172   -1.9294 H   0  0  0  0  0  0  0  0  0  0  0  0
    3.2381   -0.4734   -2.1980 H   0  0  0  0  0  0  0  0  0  0  0  0
    1.3191   -1.1989   -1.2047 H   0  0  0  0  0  0  0  0  0  0  0  0
   -0.4246   -1.9602   -0.8794 H   0  0  0  0  0  0  0  0  0  0  0  0
   -1.9753    2.4497    1.0539 H   0  0  0  0  0  0  0  0  0  0  0  0
   -1.5662    2.7752   -0.6418 H   0  0  0  0  0  0  0  0  0  0  0  0
   -3.2255    2.4928   -0.2065 H   0  0  0  0  0  0  0  0  0  0  0  0
   -3.5115   -3.0653    0.5619 H   0  0  0  0  0  0  0  0  0  0  0  0
   -2.1650   -3.6073   -0.4446 H   0  0  0  0  0  0  0  0  0  0  0  0
   -3.6361   -2.9852   -1.2070 H   0  0  0  0  0  0  0  0  0  0  0  0
   -6.6097    1.3877    0.6445 H   0  0  0  0  0  0  0  0  0  0  0  0
   -6.3674    0.3301    2.0813 H   0  0  0  0  0  0  0  0  0  0  0  0
   -6.0134    2.0705    2.1744 H   0  0  0  0  0  0  0  0  0  0  0  0
  1 13  2  0  0  0  0
  2 20  1  0  0  0  0
  2 21  1  0  0  0  0
  3 20  2  0  0  0  0
  4 12  1  0  0  0  0
  4 13  1  0  0  0  0
  4 35  1  0  0  0  0
  5 14  1  0  0  0  0
  5 17  1  0  0  0  0
  5 36  1  0  0  0  0
  6  7  1  0  0  0  0
  6  8  1  0  0  0  0
  6 12  1  0  0  0  0
  6 22  1  0  0  0  0
  7  9  1  0  0  0  0
  7 23  1  0  0  0  0
  7 24  1  0  0  0  0
  8 10  1  0  0  0  0
  8 25  1  0  0  0  0
  8 26  1  0  0  0  0
  9 11  1  0  0  0  0
  9 27  1  0  0  0  0
  9 28  1  0  0  0  0
 10 11  1  0  0  0  0
 10 29  1  0  0  0  0
 10 30  1  0  0  0  0
 11 31  1  0  0  0  0
 11 32  1  0  0  0  0
 12 33  1  0  0  0  0
 12 34  1  0  0  0  0
 13 14  1  0  0  0  0
 14 15  2  0  0  0  0
 15 16  1  0  0  0  0
 15 18  1  0  0  0  0
 16 17  2  0  0  0  0
 16 20  1  0  0  0  0
 17 19  1  0  0  0  0
 18 37  1  0  0  0  0
 18 38  1  0  0  0  0
 18 39  1  0  0  0  0
 19 40  1  0  0  0  0
 19 41  1  0  0  0  0
 19 42  1  0  0  0  0
 21 43  1  0  0  0  0
 21 44  1  0  0  0  0
 21 45  1  0  0  0  0
M  END
> <PUBCHEM_COMPOUND_CID>
17395501

> <PUBCHEM_CONFORMER_RMSD>
0.8

> <PUBCHEM_CONFORMER_DIVERSEORDER>
1
81
99
30
52
34
104
22
95
53
106
74
50
100
44
103
101
41
64
93
90
70
66
88
14
39
109
115
27
78
23
24
65
48
38
61
59
40
89
76
13
113
85
35
62
9
82
91
51
96
73
56
105
45
47
15
26
20
63
6
55
102
83
54
29
112
98
42
16
11
12
21
72
19
36
32
49
71
84
4
97
116
28
79
18
31
94
60
86
10
2
110
114
57
37
77
80
92
5
108
117
43
68
7
107
33
25
75
111
3
67
58
8
87
17
69
46

> <PUBCHEM_MMFF94_PARTIAL_CHARGES>
17
1 -0.57
12 0.3
13 0.71
14 -0.24
15 -0.18
16 -0.09
17 -0.33
18 0.18
19 0.18
2 -0.43
20 0.81
21 0.28
3 -0.57
35 0.37
36 0.27
4 -0.73
5 0.03

> <PUBCHEM_EFFECTIVE_ROTOR_COUNT>
7.2

> <PUBCHEM_PHARMACOPHORE_FEATURES>
7
1 1 acceptor
1 3 acceptor
1 4 donor
1 5 cation
1 5 donor
5 5 14 15 16 17 rings
6 6 7 8 9 10 11 rings

> <PUBCHEM_HEAVY_ATOM_COUNT>
21

> <PUBCHEM_ATOM_DEF_STEREO_COUNT>
0

> <PUBCHEM_ATOM_UDEF_STEREO_COUNT>
0

> <PUBCHEM_BOND_DEF_STEREO_COUNT>
0

> <PUBCHEM_BOND_UDEF_STEREO_COUNT>
0

> <PUBCHEM_ISOTOPIC_ATOM_COUNT>
0

> <PUBCHEM_COMPONENT_COUNT>
1

> <PUBCHEM_CACTVS_TAUTO_COUNT>
5

> <PUBCHEM_CONFORMER_ID>
01096F2D00000001

> <PUBCHEM_MMFF94_ENERGY>
24.239

> <PUBCHEM_FEATURE_SELFOVERLAP>
35.523

> <PUBCHEM_SHAPE_FINGERPRINT>
10670039 82 7925641007491804618
117890 112 17458340866195496921
12107183 9 17765443428047123008
12236239 1 18060701680106227564
12596602 18 18260829289315581610
12616971 3 17775566412339282142
12633257 1 18260551112800011256
13140716 1 18265606598803361773
13533116 47 17703789219794800872
13540713 5 18123459489333605917
13551218 46 18202003282351568962
13668630 136 14908181975971315944
13685833 64 15913324702156772552
14251764 18 18411978044995439707
14341114 176 18409450302218087520
14341114 328 18411983538279820678
14528608 73 6699804272196087786
15537594 2 17988921167805526566
17857418 61 18272094863757417318
17980427 23 18113339678521709613
1813 80 17275098479378212070
200 152 16845299341120207828
20554085 129 17749959976619552523
20645477 70 15339117931990312804
21033648 29 16732988626225844218
21065198 48 18272655675492338876
21150785 3 5906039332146386385
21267235 1 17846497080553490618
212916 134 18040433326005169075
21424621 283 16733807831704107147
21623969 137 16630522938578527554
21637258 2 15841263762645217905
220451 1 18202561757555320014
221357 26 5978112332426956922
23366157 5 17839456692109321149
23402539 116 18260548922836078477
23557571 272 17895179039609296756
23559900 14 17896579817396203478
25147074 1 18267858377047259061
2916195 48 17095241445232446649
312425 54 18336557062179336842
351380 3 17703795838334220410
5104073 3 18338793390760932593
559249 180 17774733072360999309
56616090 284 12895352204866843733
573450 72 18411140212270680854
5758199 1 18131070373984376828
5924683 9 18261683566727078159
633830 44 5328748500266831308
7226269 152 18040713697365280193

> <PUBCHEM_SHAPE_MULTIPOLES>
404.6
15.02
1.96
1.31
6.99
0.59
-0.29
-0.48
-7.62
-1.84
0.06
0.69
-0.05
-1.82

> <PUBCHEM_SHAPE_SELFOVERLAP>
836.527

> <PUBCHEM_SHAPE_VOLUME>
231.6

> <PUBCHEM_COORDINATE_TYPE>
2
5
10

$$$$

