582813
  -OEChem-06241222443D

 20 20  0     0  0  0  0  0  0999 V2000
    1.9980   -1.2193   -1.1279 F   0  0  0  0  0  0  0  0  0  0  0  0
    2.5751    0.5587    0.0001 F   0  0  0  0  0  0  0  0  0  0  0  0
    1.9876   -1.2604    1.0547 F   0  0  0  0  0  0  0  0  0  0  0  0
    0.0478    0.7407    1.1662 O   0  0  0  0  0  0  0  0  0  0  0  0
    0.0775    0.7901   -1.1820 O   0  0  0  0  0  0  0  0  0  0  0  0
   -2.5468   -0.6328    1.2310 O   0  0  0  0  0  0  0  0  0  0  0  0
   -2.7932   -0.5310   -1.0294 O   0  0  0  0  0  0  0  0  0  0  0  0
    0.2965   -0.0284   -0.0217 C   0  0  0  0  0  0  0  0  0  0  0  0
   -0.6672   -1.2081   -0.0482 C   0  0  0  0  0  0  0  0  0  0  0  0
   -0.0371    2.0909    0.7117 C   0  0  0  0  0  0  0  0  0  0  0  0
   -0.5802    1.9548   -0.6842 C   0  0  0  0  0  0  0  0  0  0  0  0
    1.7460   -0.4975   -0.0237 C   0  0  0  0  0  0  0  0  0  0  0  0
   -2.1038   -0.7576   -0.0465 C   0  0  0  0  0  0  0  0  0  0  0  0
   -0.5260   -1.8137   -0.9517 H   0  0  0  0  0  0  0  0  0  0  0  0
   -0.5132   -1.8732    0.8103 H   0  0  0  0  0  0  0  0  0  0  0  0
    0.9716    2.5173    0.7135 H   0  0  0  0  0  0  0  0  0  0  0  0
   -0.6788    2.6811    1.3705 H   0  0  0  0  0  0  0  0  0  0  0  0
   -1.6617    1.7976   -0.6909 H   0  0  0  0  0  0  0  0  0  0  0  0
   -0.3506    2.8184   -1.3140 H   0  0  0  0  0  0  0  0  0  0  0  0
   -3.4818   -0.3380    1.2665 H   0  0  0  0  0  0  0  0  0  0  0  0
  1 12  1  0  0  0  0
  2 12  1  0  0  0  0
  3 12  1  0  0  0  0
  4  8  1  0  0  0  0
  4 10  1  0  0  0  0
  5  8  1  0  0  0  0
  5 11  1  0  0  0  0
  6 13  1  0  0  0  0
  6 20  1  0  0  0  0
  7 13  2  0  0  0  0
  8  9  1  0  0  0  0
  8 12  1  0  0  0  0
  9 13  1  0  0  0  0
  9 14  1  0  0  0  0
  9 15  1  0  0  0  0
 10 11  1  0  0  0  0
 10 16  1  0  0  0  0
 10 17  1  0  0  0  0
 11 18  1  0  0  0  0
 11 19  1  0  0  0  0
M  END
> <PUBCHEM_COMPOUND_CID>
582813

> <PUBCHEM_CONFORMER_RMSD>
0.6

> <PUBCHEM_CONFORMER_DIVERSEORDER>
1
5
4
3
6
2

> <PUBCHEM_MMFF94_PARTIAL_CHARGES>
14
1 -0.34
10 0.28
11 0.28
12 1.02
13 0.66
2 -0.34
20 0.5
3 -0.34
4 -0.56
5 -0.56
6 -0.65
7 -0.57
8 0.56
9 0.06

> <PUBCHEM_EFFECTIVE_ROTOR_COUNT>
4

> <PUBCHEM_PHARMACOPHORE_FEATURES>
6
1 4 acceptor
1 5 acceptor
1 6 acceptor
1 7 acceptor
3 6 7 13 anion
5 4 5 8 10 11 rings

> <PUBCHEM_HEAVY_ATOM_COUNT>
13

> <PUBCHEM_ATOM_DEF_STEREO_COUNT>
0

> <PUBCHEM_ATOM_UDEF_STEREO_COUNT>
0

> <PUBCHEM_BOND_DEF_STEREO_COUNT>
0

> <PUBCHEM_BOND_UDEF_STEREO_COUNT>
0

> <PUBCHEM_ISOTOPIC_ATOM_COUNT>
0

> <PUBCHEM_COMPONENT_COUNT>
1

> <PUBCHEM_CACTVS_TAUTO_COUNT>
1

> <PUBCHEM_CONFORMER_ID>
0008E49D00000001

> <PUBCHEM_MMFF94_ENERGY>
20.7471

> <PUBCHEM_FEATURE_SELFOVERLAP>
30.546

> <PUBCHEM_SHAPE_FINGERPRINT>
10702982 57 17053318355033860905
12423570 1 7483408986445927537
12524768 44 18334853892185775502
13024252 1 13469538136447789852
137420 1 6645534967956172697
13839132 238 14853259205120624875
16945 1 18262232201474899512
20653085 51 14476674273294081543
20653091 64 18120086183027011347
20711985 344 18195238051693007526
21040471 1 17473545127964785212
2748010 2 18337113474495915004
29004967 10 17988922228087143562
5084963 1 17030506808936267624
81228 2 18266457805091520737

> <PUBCHEM_SHAPE_MULTIPOLES>
222.24
3.14
1.85
1.14
0.57
0.98
-0.04
-1.45
0.05
-0.1
-0.03
0.16
0.03
0.1

> <PUBCHEM_SHAPE_SELFOVERLAP>
460.594

> <PUBCHEM_SHAPE_VOLUME>
126.4

> <PUBCHEM_COORDINATE_TYPE>
2
5
10

$$$$

