4129
  -OEChem-06251223543D

 57 56  0     1  0  0  0  0  0999 V2000
   -2.7052   -0.6067    1.2259 P   0  0  1  0  0  0  0  0  0  0  0  0
   -1.3307   -1.2582    0.8681 F   0  0  0  0  0  0  0  0  0  0  0  0
   -3.4781   -1.7589    2.0490 O   0  0  0  0  0  0  0  0  0  0  0  0
   -2.5101    0.6587    1.9928 O   0  0  0  0  0  0  0  0  0  0  0  0
   -1.6137    2.3289   -2.1294 C   0  0  0  0  0  0  0  0  0  0  0  0
   -0.1373    2.5129   -2.4932 C   0  0  0  0  0  0  0  0  0  0  0  0
   -1.9612    1.0251   -1.4062 C   0  0  0  0  0  0  0  0  0  0  0  0
    0.8373    2.5778   -1.3136 C   0  0  0  0  0  0  0  0  0  0  0  0
   -3.4284    0.9337   -0.9841 C   0  0  0  0  0  0  0  0  0  0  0  0
    0.5038    3.6802   -0.3056 C   0  0  0  0  0  0  0  0  0  0  0  0
   -3.7264   -0.3656   -0.2458 C   0  0  0  0  0  0  0  0  0  0  0  0
    1.5618    3.7539    0.7999 C   0  0  0  0  0  0  0  0  0  0  0  0
    1.6250    2.4699    1.5754 C   0  0  0  0  0  0  0  0  0  0  0  0
    2.6879    1.6697    1.7518 C   0  0  0  0  0  0  0  0  0  0  0  0
    2.7525    0.3861    2.5266 C   0  0  0  0  0  0  0  0  0  0  0  0
   -3.6862   -3.0319    1.4636 C   0  0  0  0  0  0  0  0  0  0  0  0
    3.1314   -0.7717    1.6508 C   0  0  0  0  0  0  0  0  0  0  0  0
    2.3483   -1.8426    1.4496 C   0  0  0  0  0  0  0  0  0  0  0  0
    2.7144   -2.9819    0.5431 C   0  0  0  0  0  0  0  0  0  0  0  0
    2.2521   -2.8630   -0.8858 C   0  0  0  0  0  0  0  0  0  0  0  0
    1.5700   -1.8525   -1.4486 C   0  0  0  0  0  0  0  0  0  0  0  0
    1.1212   -1.7513   -2.8817 C   0  0  0  0  0  0  0  0  0  0  0  0
    1.4718   -2.9124   -3.8024 C   0  0  0  0  0  0  0  0  0  0  0  0
   -2.1957    2.3682   -3.0593 H   0  0  0  0  0  0  0  0  0  0  0  0
   -1.9551    3.1821   -1.5319 H   0  0  0  0  0  0  0  0  0  0  0  0
   -0.0404    3.4363   -3.0778 H   0  0  0  0  0  0  0  0  0  0  0  0
    0.1707    1.6948   -3.1561 H   0  0  0  0  0  0  0  0  0  0  0  0
   -1.7142    0.1771   -2.0563 H   0  0  0  0  0  0  0  0  0  0  0  0
   -1.3234    0.9397   -0.5214 H   0  0  0  0  0  0  0  0  0  0  0  0
    0.8574    1.5983   -0.8242 H   0  0  0  0  0  0  0  0  0  0  0  0
    1.8458    2.7441   -1.7128 H   0  0  0  0  0  0  0  0  0  0  0  0
   -3.6695    1.7821   -0.3331 H   0  0  0  0  0  0  0  0  0  0  0  0
   -4.0751    1.0073   -1.8658 H   0  0  0  0  0  0  0  0  0  0  0  0
   -0.4784    3.5030    0.1474 H   0  0  0  0  0  0  0  0  0  0  0  0
    0.4552    4.6480   -0.8183 H   0  0  0  0  0  0  0  0  0  0  0  0
   -3.5894   -1.2224   -0.9139 H   0  0  0  0  0  0  0  0  0  0  0  0
   -4.7770   -0.3551    0.0649 H   0  0  0  0  0  0  0  0  0  0  0  0
    2.5395    3.9947    0.3662 H   0  0  0  0  0  0  0  0  0  0  0  0
    1.3067    4.5676    1.4884 H   0  0  0  0  0  0  0  0  0  0  0  0
    0.6909    2.1709    2.0494 H   0  0  0  0  0  0  0  0  0  0  0  0
    3.6244    1.9787    1.2886 H   0  0  0  0  0  0  0  0  0  0  0  0
    1.7964    0.1987    3.0303 H   0  0  0  0  0  0  0  0  0  0  0  0
    3.5063    0.4903    3.3157 H   0  0  0  0  0  0  0  0  0  0  0  0
   -3.9450   -3.7423    2.2525 H   0  0  0  0  0  0  0  0  0  0  0  0
   -2.7774   -3.3733    0.9610 H   0  0  0  0  0  0  0  0  0  0  0  0
   -4.5106   -2.9798    0.7483 H   0  0  0  0  0  0  0  0  0  0  0  0
    4.1011   -0.7243    1.1600 H   0  0  0  0  0  0  0  0  0  0  0  0
    1.3738   -1.8918    1.9296 H   0  0  0  0  0  0  0  0  0  0  0  0
    3.8042   -3.1117    0.5366 H   0  0  0  0  0  0  0  0  0  0  0  0
    2.3028   -3.9050    0.9690 H   0  0  0  0  0  0  0  0  0  0  0  0
    2.5277   -3.7153   -1.5027 H   0  0  0  0  0  0  0  0  0  0  0  0
    1.2882   -0.9973   -0.8392 H   0  0  0  0  0  0  0  0  0  0  0  0
    1.5458   -0.8323   -3.3037 H   0  0  0  0  0  0  0  0  0  0  0  0
    0.0320   -1.6233   -2.8850 H   0  0  0  0  0  0  0  0  0  0  0  0
    2.5557   -3.0494   -3.8759 H   0  0  0  0  0  0  0  0  0  0  0  0
    1.0240   -3.8481   -3.4518 H   0  0  0  0  0  0  0  0  0  0  0  0
    1.0914   -2.7183   -4.8107 H   0  0  0  0  0  0  0  0  0  0  0  0
  1  2  1  0  0  0  0
  1  3  1  0  0  0  0
  1  4  2  0  0  0  0
  1 11  1  0  0  0  0
  3 16  1  0  0  0  0
  5  6  1  0  0  0  0
  5  7  1  0  0  0  0
  5 24  1  0  0  0  0
  5 25  1  0  0  0  0
  6  8  1  0  0  0  0
  6 26  1  0  0  0  0
  6 27  1  0  0  0  0
  7  9  1  0  0  0  0
  7 28  1  0  0  0  0
  7 29  1  0  0  0  0
  8 10  1  0  0  0  0
  8 30  1  0  0  0  0
  8 31  1  0  0  0  0
  9 11  1  0  0  0  0
  9 32  1  0  0  0  0
  9 33  1  0  0  0  0
 10 12  1  0  0  0  0
 10 34  1  0  0  0  0
 10 35  1  0  0  0  0
 11 36  1  0  0  0  0
 11 37  1  0  0  0  0
 12 13  1  0  0  0  0
 12 38  1  0  0  0  0
 12 39  1  0  0  0  0
 13 14  2  0  0  0  0
 13 40  1  0  0  0  0
 14 15  1  0  0  0  0
 14 41  1  0  0  0  0
 15 17  1  0  0  0  0
 15 42  1  0  0  0  0
 15 43  1  0  0  0  0
 16 44  1  0  0  0  0
 16 45  1  0  0  0  0
 16 46  1  0  0  0  0
 17 18  2  0  0  0  0
 17 47  1  0  0  0  0
 18 19  1  0  0  0  0
 18 48  1  0  0  0  0
 19 20  1  0  0  0  0
 19 49  1  0  0  0  0
 19 50  1  0  0  0  0
 20 21  2  0  0  0  0
 20 51  1  0  0  0  0
 21 22  1  0  0  0  0
 21 52  1  0  0  0  0
 22 23  1  0  0  0  0
 22 53  1  0  0  0  0
 22 54  1  0  0  0  0
 23 55  1  0  0  0  0
 23 56  1  0  0  0  0
 23 57  1  0  0  0  0
M  END
> <PUBCHEM_COMPOUND_CID>
4129

> <PUBCHEM_CONFORMER_RMSD>
1.6

> <PUBCHEM_CONFORMER_DIVERSEORDER>
1
9
49
44
27
105
32
5
36
48
30
106
3
57
34
79
15
38
62
29
58
59
95
70
25
37
39
77
97
45
89
75
81
10
85
43
54
69
22
102
8
17
110
23
42
6
40
13
12
16
100
82
31
64
60
93
11
88
103
86
68
73
52
53
63
109
46
92
65
96
108
107
71
61
90
66
47
80
26
2
111
24
33
76
72
87
7
50
101
83
94
21
28
112
56
91
35
19
67
41
14
51
74
20
99
84
18
98
4
55
78
104

> <PUBCHEM_MMFF94_PARTIAL_CHARGES>
21
1 1.3
12 0.14
13 -0.29
14 -0.29
15 0.28
16 0.28
17 -0.29
18 -0.29
19 0.28
2 -0.33
20 -0.29
21 -0.29
22 0.14
3 -0.55
4 -0.7
40 0.15
41 0.15
47 0.15
48 0.15
51 0.15
52 0.15

> <PUBCHEM_EFFECTIVE_ROTOR_COUNT>
15

> <PUBCHEM_PHARMACOPHORE_FEATURES>
1
1 23 hydrophobe

> <PUBCHEM_HEAVY_ATOM_COUNT>
23

> <PUBCHEM_ATOM_DEF_STEREO_COUNT>
0

> <PUBCHEM_ATOM_UDEF_STEREO_COUNT>
1

> <PUBCHEM_BOND_DEF_STEREO_COUNT>
0

> <PUBCHEM_BOND_UDEF_STEREO_COUNT>
3

> <PUBCHEM_ISOTOPIC_ATOM_COUNT>
0

> <PUBCHEM_COMPONENT_COUNT>
1

> <PUBCHEM_CACTVS_TAUTO_COUNT>
1

> <PUBCHEM_CONFORMER_ID>
0000102100000001

> <PUBCHEM_MMFF94_ENERGY>
4.9825

> <PUBCHEM_FEATURE_SELFOVERLAP>
5.074

> <PUBCHEM_SHAPE_FINGERPRINT>
10708813 3 17682722503691456268
11112662 9 17322377212694015489
11244481 83 18272076167627569251
12156800 1 13533688785909265528
12712778 12 17193790857098494514
13402501 40 18055100840926061512
13642711 20 16548688504405510143
14932701 244 17832950062133116294
15003188 3 18266746972750310317
20397935 3 17703511103028718036
20600515 1 18121472890459611182
20765182 20 18409170978276057408
35225 105 17032188580384271356
445580 42 15588777800574492350
539174 4 15504374645166031660

> <PUBCHEM_SHAPE_MULTIPOLES>
458.17
6.15
5.38
3.7
3.43
2.06
2.39
-3.88
-3.59
-1.92
1.14
-0.73
-1.83
3.96

> <PUBCHEM_SHAPE_SELFOVERLAP>
839.331

> <PUBCHEM_SHAPE_VOLUME>
288.8

> <PUBCHEM_COORDINATE_TYPE>
2
5
10

$$$$

