585984
  -OEChem-06241222453D

 49 52  0     1  0  0  0  0  0999 V2000
    1.8366    2.0713   -0.4630 O   0  0  0  0  0  0  0  0  0  0  0  0
    0.2822    1.4786   -2.5805 O   0  0  0  0  0  0  0  0  0  0  0  0
   -3.5031   -2.8063   -0.5474 O   0  0  0  0  0  0  0  0  0  0  0  0
    1.4644   -0.0724    0.5917 N   0  0  2  0  0  0  0  0  0  0  0  0
   -2.7727    2.3842    1.2098 N   0  0  0  0  0  0  0  0  0  0  0  0
    3.4411   -0.9485   -0.8484 C   0  0  1  0  0  0  0  0  0  0  0  0
    1.5259    0.6859   -0.6902 C   0  0  2  0  0  0  0  0  0  0  0  0
    2.6273    0.1128   -1.6183 C   0  0  0  0  0  0  0  0  0  0  0  0
    3.9576   -0.2850    0.4488 C   0  0  1  0  0  0  0  0  0  0  0  0
    2.4659   -2.0862   -0.4961 C   0  0  0  0  0  0  0  0  0  0  0  0
    2.7446    0.0949    1.3297 C   0  0  0  0  0  0  0  0  0  0  0  0
    1.3027   -1.5232    0.3346 C   0  0  0  0  0  0  0  0  0  0  0  0
    0.1656    0.7007   -1.4043 C   0  0  1  0  0  0  0  0  0  0  0  0
    4.9333   -1.1490    1.1894 C   0  0  0  0  0  0  0  0  0  0  0  0
   -0.8836    1.2581   -0.4897 C   0  0  0  0  0  0  0  0  0  0  0  0
   -1.9986    0.5105   -0.0928 C   0  0  0  0  0  0  0  0  0  0  0  0
    6.2016   -0.8040    1.4357 C   0  0  0  0  0  0  0  0  0  0  0  0
   -0.7148    2.5584   -0.0403 C   0  0  0  0  0  0  0  0  0  0  0  0
   -2.9320    1.1215    0.7704 C   0  0  0  0  0  0  0  0  0  0  0  0
   -2.1963   -0.8097   -0.5319 C   0  0  0  0  0  0  0  0  0  0  0  0
   -1.6810    3.0707    0.8016 C   0  0  0  0  0  0  0  0  0  0  0  0
   -4.0415    0.3794    1.1662 C   0  0  0  0  0  0  0  0  0  0  0  0
   -3.3148   -1.5286   -0.1204 C   0  0  0  0  0  0  0  0  0  0  0  0
   -4.2383   -0.9330    0.7298 C   0  0  0  0  0  0  0  0  0  0  0  0
   -4.6722   -3.4811   -0.0844 C   0  0  0  0  0  0  0  0  0  0  0  0
    4.2636   -1.3217   -1.4688 H   0  0  0  0  0  0  0  0  0  0  0  0
    3.3065    0.8992   -1.9700 H   0  0  0  0  0  0  0  0  0  0  0  0
    2.1993   -0.3659   -2.5081 H   0  0  0  0  0  0  0  0  0  0  0  0
    4.4652    0.6473    0.1609 H   0  0  0  0  0  0  0  0  0  0  0  0
    2.9748   -2.8844    0.0548 H   0  0  0  0  0  0  0  0  0  0  0  0
    2.0757   -2.5375   -1.4167 H   0  0  0  0  0  0  0  0  0  0  0  0
    2.7078   -0.4943    2.2559 H   0  0  0  0  0  0  0  0  0  0  0  0
    2.8436    1.1350    1.6661 H   0  0  0  0  0  0  0  0  0  0  0  0
    0.3566   -1.7498   -0.1563 H   0  0  0  0  0  0  0  0  0  0  0  0
    1.2460   -2.0563    1.2927 H   0  0  0  0  0  0  0  0  0  0  0  0
   -0.0486   -0.2997   -1.7705 H   0  0  0  0  0  0  0  0  0  0  0  0
    4.5869   -2.1092    1.5629 H   0  0  0  0  0  0  0  0  0  0  0  0
    1.9476    2.5008   -1.3291 H   0  0  0  0  0  0  0  0  0  0  0  0
   -0.6120    1.6521   -2.9209 H   0  0  0  0  0  0  0  0  0  0  0  0
    6.8558   -1.4727    1.9845 H   0  0  0  0  0  0  0  0  0  0  0  0
    6.6095    0.1422    1.0981 H   0  0  0  0  0  0  0  0  0  0  0  0
    0.0463    3.2454   -0.3807 H   0  0  0  0  0  0  0  0  0  0  0  0
   -1.5346   -1.3253   -1.2157 H   0  0  0  0  0  0  0  0  0  0  0  0
   -1.6191    4.0914    1.1645 H   0  0  0  0  0  0  0  0  0  0  0  0
   -4.7789    0.8243    1.8320 H   0  0  0  0  0  0  0  0  0  0  0  0
   -5.1325   -1.4279    1.0931 H   0  0  0  0  0  0  0  0  0  0  0  0
   -4.6598   -3.6063    1.0036 H   0  0  0  0  0  0  0  0  0  0  0  0
   -4.6611   -4.4846   -0.5223 H   0  0  0  0  0  0  0  0  0  0  0  0
   -5.5858   -2.9890   -0.4349 H   0  0  0  0  0  0  0  0  0  0  0  0
  1  7  1  0  0  0  0
  1 38  1  0  0  0  0
  2 13  1  0  0  0  0
  2 39  1  0  0  0  0
  3 23  1  0  0  0  0
  3 25  1  0  0  0  0
  4  7  1  0  0  0  0
  4 11  1  0  0  0  0
  4 12  1  0  0  0  0
  5 19  2  0  0  0  0
  5 21  1  0  0  0  0
  6  8  1  0  0  0  0
  6  9  1  0  0  0  0
  6 10  1  0  0  0  0
  6 26  1  0  0  0  0
  7  8  1  0  0  0  0
  7 13  1  0  0  0  0
  8 27  1  0  0  0  0
  8 28  1  0  0  0  0
  9 11  1  0  0  0  0
  9 14  1  0  0  0  0
  9 29  1  0  0  0  0
 10 12  1  0  0  0  0
 10 30  1  0  0  0  0
 10 31  1  0  0  0  0
 11 32  1  0  0  0  0
 11 33  1  0  0  0  0
 12 34  1  0  0  0  0
 12 35  1  0  0  0  0
 13 15  1  0  0  0  0
 13 36  1  0  0  0  0
 14 17  2  0  0  0  0
 14 37  1  0  0  0  0
 15 16  2  0  0  0  0
 15 18  1  0  0  0  0
 16 19  1  0  0  0  0
 16 20  1  0  0  0  0
 17 40  1  0  0  0  0
 17 41  1  0  0  0  0
 18 21  2  0  0  0  0
 18 42  1  0  0  0  0
 19 22  1  0  0  0  0
 20 23  2  0  0  0  0
 20 43  1  0  0  0  0
 21 44  1  0  0  0  0
 22 24  2  0  0  0  0
 22 45  1  0  0  0  0
 23 24  1  0  0  0  0
 24 46  1  0  0  0  0
 25 47  1  0  0  0  0
 25 48  1  0  0  0  0
 25 49  1  0  0  0  0
M  END
> <PUBCHEM_COMPOUND_CID>
585984

> <PUBCHEM_CONFORMER_RMSD>
0.8

> <PUBCHEM_CONFORMER_DIVERSEORDER>
1
23
26
12
28
9
4
25
16
5
18
17
29
11
21
3
7
2
19
13
22
8
6
24
14
20
15
27
10

> <PUBCHEM_MMFF94_PARTIAL_CHARGES>
31
1 -0.68
11 0.27
12 0.27
13 0.42
14 -0.29
15 -0.14
17 -0.3
18 -0.15
19 0.31
2 -0.68
20 -0.15
21 0.16
22 -0.15
23 0.08
24 -0.15
25 0.28
3 -0.36
37 0.15
38 0.4
39 0.4
4 -0.81
40 0.15
41 0.15
42 0.15
43 0.15
44 0.15
45 0.15
46 0.15
5 -0.62
7 0.55
9 0.14

> <PUBCHEM_EFFECTIVE_ROTOR_COUNT>
5.2

> <PUBCHEM_PHARMACOPHORE_FEATURES>
11
1 1 acceptor
1 1 donor
1 17 hydrophobe
1 2 acceptor
1 2 donor
1 3 acceptor
1 4 cation
1 5 acceptor
6 16 19 20 22 23 24 rings
6 5 15 16 18 19 21 rings
8 4 6 7 8 9 10 11 12 rings

> <PUBCHEM_HEAVY_ATOM_COUNT>
25

> <PUBCHEM_ATOM_DEF_STEREO_COUNT>
0

> <PUBCHEM_ATOM_UDEF_STEREO_COUNT>
4

> <PUBCHEM_BOND_DEF_STEREO_COUNT>
0

> <PUBCHEM_BOND_UDEF_STEREO_COUNT>
0

> <PUBCHEM_ISOTOPIC_ATOM_COUNT>
0

> <PUBCHEM_COMPONENT_COUNT>
1

> <PUBCHEM_CACTVS_TAUTO_COUNT>
1

> <PUBCHEM_CONFORMER_ID>
0008F10000000001

> <PUBCHEM_MMFF94_ENERGY>
103.3747

> <PUBCHEM_FEATURE_SELFOVERLAP>
55.863

> <PUBCHEM_SHAPE_FINGERPRINT>
10319926 262 18115875286048903042
10366900 7 17823157746344414360
10369192 42 17676496000204904808
11370993 144 17096076029970640163
11552529 35 18337402650565200522
11578080 2 18131082501965089653
12166972 35 17987807280795818455
12507560 40 17604431937202203120
12553582 1 18264474127665270999
12633257 1 18040712580241058897
12892183 10 17896319288943358896
12930653 34 18115593793343423982
13009979 54 18343012268468985770
13140716 1 18335138657408063401
13224815 77 17989198278757549092
13583140 156 17531543069355237224
13911987 19 15335978757209630742
13994607 96 6122209979318162311
14081887 123 18334015029211632475
14178342 30 18337953523112620670
14223421 5 18259988188421292648
14787075 74 17978781316449237660
14856354 85 18334573560366516278
15183329 4 8935004789592753824
15209289 33 18272649082258610490
15415430 10 18343588416878136518
15788980 27 16415193529180544096
16945 1 18339077210774150733
17349148 13 17632574976850216178
17780758 139 18338526329979180394
1813 80 17774990328085609036
18186145 218 12463572880748610397
19377110 9 18343862208965450216
200 152 15913323645710881720
20028762 73 18337677416988624214
20291156 8 18339070502562404047
20600515 1 18113885083860825849
20626108 58 17845103878355086895
21033648 29 15936950986998626763
21304303 282 13972306342592798748
21421861 104 18047456839175056907
21650355 55 18334858329356601233
21756936 100 6699520654157485622
23184049 29 18262227825388664605
23402539 116 17489590108054688418
23419403 2 17836687090974801605
23557571 272 17967811682164406809
23559900 14 17752462498795262932
339767 52 18413674625543830251
392239 28 18408041793078001448
463206 1 18121781626069100895
5104073 3 18262788554938634841
602551 16 18335135427603160738
6371380 46 17181649001705462790
7097593 13 18266732674271003103
7471813 234 18118131264522811167

> <PUBCHEM_SHAPE_MULTIPOLES>
486.92
9.99
3.15
1.52
5.89
0.37
0.45
6.96
-4.6
-4.23
-0.04
0.95
-0.44
-1.17

> <PUBCHEM_SHAPE_SELFOVERLAP>
1068.434

> <PUBCHEM_SHAPE_VOLUME>
257.6

> <PUBCHEM_COORDINATE_TYPE>
2
5
10

$$$$

