17396112
  -OEChem-06241222542D

 49 53  0     1  0  0  0  0  0999 V2000
    4.6783   -2.6478    0.0000 S   0  0  0  0  0  0  0  0  0  0  0  0
    9.3694    3.9525    0.0000 S   0  0  0  0  0  0  0  0  0  0  0  0
    5.5625   -1.4845    0.0000 O   0  0  0  0  0  0  0  0  0  0  0  0
    7.9300    2.4391    0.0000 O   0  0  0  0  0  0  0  0  0  0  0  0
    6.8497   -2.6435    0.0000 N   0  0  0  0  0  0  0  0  0  0  0  0
    4.6783   -4.2572    0.0000 N   0  0  0  0  0  0  0  0  0  0  0  0
    9.2172    1.2801    0.0000 N   0  0  0  0  0  0  0  0  0  0  0  0
    6.2619   -3.4525    0.0000 C   0  0  3  0  0  0  0  0  0  0  0  0
    6.8497   -4.2615    0.0000 C   0  0  0  0  0  0  0  0  0  0  0  0
    7.8007   -3.9525    0.0000 C   0  0  0  0  0  0  0  0  0  0  0  0
    7.8007   -2.9525    0.0000 C   0  0  0  0  0  0  0  0  0  0  0  0
    5.2619   -3.4525    0.0000 C   0  0  0  0  0  0  0  0  0  0  0  0
    6.5406   -1.6924    0.0000 C   0  0  0  0  0  0  0  0  0  0  0  0
    7.2098   -0.9493    0.0000 C   0  0  0  0  0  0  0  0  0  0  0  0
    3.7320   -2.9525    0.0000 C   0  0  0  0  0  0  0  0  0  0  0  0
    3.7320   -3.9525    0.0000 C   0  0  0  0  0  0  0  0  0  0  0  0
    8.1879   -1.1572    0.0000 C   0  0  0  0  0  0  0  0  0  0  0  0
    6.9008    0.0018    0.0000 C   0  0  0  0  0  0  0  0  0  0  0  0
    2.8660   -2.4525    0.0000 C   0  0  0  0  0  0  0  0  0  0  0  0
    2.8660   -4.4525    0.0000 C   0  0  0  0  0  0  0  0  0  0  0  0
    8.8571   -0.4140    0.0000 C   0  0  0  0  0  0  0  0  0  0  0  0
    7.5699    0.7449    0.0000 C   0  0  0  0  0  0  0  0  0  0  0  0
    8.5480    0.5370    0.0000 C   0  0  0  0  0  0  0  0  0  0  0  0
    2.0000   -2.9525    0.0000 C   0  0  0  0  0  0  0  0  0  0  0  0
    2.0000   -3.9525    0.0000 C   0  0  0  0  0  0  0  0  0  0  0  0
    8.9081    2.2312    0.0000 C   0  0  0  0  0  0  0  0  0  0  0  0
    9.5773    2.9744    0.0000 C   0  0  0  0  0  0  0  0  0  0  0  0
   10.5718    2.8698    0.0000 C   0  0  0  0  0  0  0  0  0  0  0  0
   10.9785    3.7834    0.0000 C   0  0  0  0  0  0  0  0  0  0  0  0
   10.2354    4.4525    0.0000 C   0  0  0  0  0  0  0  0  0  0  0  0
    5.9804   -2.9001    0.0000 H   0  0  0  0  0  0  0  0  0  0  0  0
    6.3127   -4.5715    0.0000 H   0  0  0  0  0  0  0  0  0  0  0  0
    7.1018   -4.8279    0.0000 H   0  0  0  0  0  0  0  0  0  0  0  0
    7.9296   -4.5590    0.0000 H   0  0  0  0  0  0  0  0  0  0  0  0
    8.4173   -3.8877    0.0000 H   0  0  0  0  0  0  0  0  0  0  0  0
    8.4173   -3.0173    0.0000 H   0  0  0  0  0  0  0  0  0  0  0  0
    7.9296   -2.3460    0.0000 H   0  0  0  0  0  0  0  0  0  0  0  0
    8.3795   -1.7468    0.0000 H   0  0  0  0  0  0  0  0  0  0  0  0
    6.2943    0.1307    0.0000 H   0  0  0  0  0  0  0  0  0  0  0  0
    2.8660   -1.8325    0.0000 H   0  0  0  0  0  0  0  0  0  0  0  0
    2.8660   -5.0725    0.0000 H   0  0  0  0  0  0  0  0  0  0  0  0
    9.4635   -0.5430    0.0000 H   0  0  0  0  0  0  0  0  0  0  0  0
    7.3783    1.3346    0.0000 H   0  0  0  0  0  0  0  0  0  0  0  0
    1.4631   -2.6425    0.0000 H   0  0  0  0  0  0  0  0  0  0  0  0
    1.4631   -4.2625    0.0000 H   0  0  0  0  0  0  0  0  0  0  0  0
    9.8236    1.1513    0.0000 H   0  0  0  0  0  0  0  0  0  0  0  0
   10.8818    2.3329    0.0000 H   0  0  0  0  0  0  0  0  0  0  0  0
   11.5850    3.9123    0.0000 H   0  0  0  0  0  0  0  0  0  0  0  0
   10.3002    5.0691    0.0000 H   0  0  0  0  0  0  0  0  0  0  0  0
  1 12  1  0  0  0  0
  1 15  1  0  0  0  0
  2 27  1  0  0  0  0
  2 30  1  0  0  0  0
  3 13  2  0  0  0  0
  4 26  2  0  0  0  0
  5  8  1  0  0  0  0
  5 11  1  0  0  0  0
  5 13  1  0  0  0  0
  6 12  2  0  0  0  0
  6 16  1  0  0  0  0
  7 23  1  0  0  0  0
  7 26  1  0  0  0  0
  7 46  1  0  0  0  0
  8  9  1  0  0  0  0
  8 12  1  0  0  0  0
  8 31  1  0  0  0  0
  9 10  1  0  0  0  0
  9 32  1  0  0  0  0
  9 33  1  0  0  0  0
 10 11  1  0  0  0  0
 10 34  1  0  0  0  0
 10 35  1  0  0  0  0
 11 36  1  0  0  0  0
 11 37  1  0  0  0  0
 13 14  1  0  0  0  0
 14 17  2  0  0  0  0
 14 18  1  0  0  0  0
 15 16  1  0  0  0  0
 15 19  2  0  0  0  0
 16 20  2  0  0  0  0
 17 21  1  0  0  0  0
 17 38  1  0  0  0  0
 18 22  2  0  0  0  0
 18 39  1  0  0  0  0
 19 24  1  0  0  0  0
 19 40  1  0  0  0  0
 20 25  1  0  0  0  0
 20 41  1  0  0  0  0
 21 23  2  0  0  0  0
 21 42  1  0  0  0  0
 22 23  1  0  0  0  0
 22 43  1  0  0  0  0
 24 25  2  0  0  0  0
 24 44  1  0  0  0  0
 25 45  1  0  0  0  0
 26 27  1  0  0  0  0
 27 28  2  0  0  0  0
 28 29  1  0  0  0  0
 28 47  1  0  0  0  0
 29 30  2  0  0  0  0
 29 48  1  0  0  0  0
 30 49  1  0  0  0  0
M  END
> <PUBCHEM_COMPOUND_CID>
17396112

> <PUBCHEM_COMPOUND_CANONICALIZED>
1

> <PUBCHEM_CACTVS_COMPLEXITY>
640

> <PUBCHEM_CACTVS_HBOND_ACCEPTOR>
5

> <PUBCHEM_CACTVS_HBOND_DONOR>
1

> <PUBCHEM_CACTVS_ROTATABLE_BOND>
4

> <PUBCHEM_CACTVS_SUBSKEYS>
AAADceB7MABgAAAAAAAAAAAAAAAAAWLEgAAwYAAAAAAAAFgB/AAAHgQQAAAADCjF3gSwwbPIEAisAyVyVACD8KBlCjhImD04ZNgIYLLglZGUIQhglgDoyYcYiQCeCAAAAAAAAQAQAAAAAAACAAAAAAAAAA==

> <PUBCHEM_IUPAC_OPENEYE_NAME>
N-[4-[2-(1,3-benzothiazol-2-yl)pyrrolidine-1-carbonyl]phenyl]thiophene-2-carboxamide

> <PUBCHEM_IUPAC_CAS_NAME>
N-[4-[[2-(1,3-benzothiazol-2-yl)-1-pyrrolidinyl]-oxomethyl]phenyl]-2-thiophenecarboxamide

> <PUBCHEM_IUPAC_NAME>
N-[4-[2-(1,3-benzothiazol-2-yl)pyrrolidine-1-carbonyl]phenyl]thiophene-2-carboxamide

> <PUBCHEM_IUPAC_SYSTEMATIC_NAME>
N-[4-[2-(1,3-benzothiazol-2-yl)pyrrolidin-1-yl]carbonylphenyl]thiophene-2-carboxamide

> <PUBCHEM_IUPAC_TRADITIONAL_NAME>
N-[4-[2-(1,3-benzothiazol-2-yl)pyrrolidine-1-carbonyl]phenyl]thiophene-2-carboxamide

> <PUBCHEM_IUPAC_INCHI>
InChI=1S/C23H19N3O2S2/c27-21(20-8-4-14-29-20)24-16-11-9-15(10-12-16)23(28)26-13-3-6-18(26)22-25-17-5-1-2-7-19(17)30-22/h1-2,4-5,7-12,14,18H,3,6,13H2,(H,24,27)

> <PUBCHEM_IUPAC_INCHIKEY>
VQUIJZSCCRZUMB-UHFFFAOYSA-N

> <PUBCHEM_XLOGP3_AA>
4.7

> <PUBCHEM_EXACT_MASS>
433.091869

> <PUBCHEM_MOLECULAR_FORMULA>
C23H19N3O2S2

> <PUBCHEM_MOLECULAR_WEIGHT>
433.54586

> <PUBCHEM_OPENEYE_CAN_SMILES>
C1CC(N(C1)C(=O)C2=CC=C(C=C2)NC(=O)C3=CC=CS3)C4=NC5=CC=CC=C5S4

> <PUBCHEM_OPENEYE_ISO_SMILES>
C1CC(N(C1)C(=O)C2=CC=C(C=C2)NC(=O)C3=CC=CS3)C4=NC5=CC=CC=C5S4

> <PUBCHEM_CACTVS_TPSA>
119

> <PUBCHEM_MONOISOTOPIC_WEIGHT>
433.091869

> <PUBCHEM_TOTAL_CHARGE>
0

> <PUBCHEM_HEAVY_ATOM_COUNT>
30

> <PUBCHEM_ATOM_DEF_STEREO_COUNT>
0

> <PUBCHEM_ATOM_UDEF_STEREO_COUNT>
1

> <PUBCHEM_BOND_DEF_STEREO_COUNT>
0

> <PUBCHEM_BOND_UDEF_STEREO_COUNT>
0

> <PUBCHEM_ISOTOPIC_ATOM_COUNT>
0

> <PUBCHEM_COMPONENT_COUNT>
1

> <PUBCHEM_CACTVS_TAUTO_COUNT>
4

> <PUBCHEM_COORDINATE_TYPE>
1
5
255

> <PUBCHEM_BONDANNOTATIONS>
1  12  8
1  15  8
14  17  8
14  18  8
15  16  8
15  19  8
16  20  8
17  21  8
18  22  8
19  24  8
2  27  8
2  30  8
20  25  8
21  23  8
22  23  8
24  25  8
27  28  8
28  29  8
29  30  8
6  12  8
6  16  8
8  12  3

$$$$

