17395600
  -OEChem-06241222513D

 62 65  0     1  0  0  0  0  0999 V2000
   -2.6215    0.5721    0.8885 S   0  0  0  0  0  0  0  0  0  0  0  0
   -5.8666    0.1912    1.7819 O   0  0  0  0  0  0  0  0  0  0  0  0
   -3.6225   -1.7760   -1.3510 O   0  0  0  0  0  0  0  0  0  0  0  0
    7.2541    0.9870   -0.6824 O   0  0  0  0  0  0  0  0  0  0  0  0
    0.0553    0.3629    0.4291 N   0  0  0  0  0  0  0  0  0  0  0  0
    0.4508   -1.7614    0.7731 N   0  0  0  0  0  0  0  0  0  0  0  0
   -0.8946   -1.5299    0.9791 N   0  0  0  0  0  0  0  0  0  0  0  0
    3.2866   -1.5443    0.1978 N   0  0  0  0  0  0  0  0  0  0  0  0
   -5.5082   -0.7003   -0.3376 N   0  0  0  0  0  0  0  0  0  0  0  0
   -5.6330   -1.4470   -2.4921 N   0  0  0  0  0  0  0  0  0  0  0  0
    0.2724    1.7798    0.1091 C   0  0  0  0  0  0  0  0  0  0  0  0
   -0.4925    2.2169   -1.1513 C   0  0  0  0  0  0  0  0  0  0  0  0
   -0.0318    2.7002    1.3029 C   0  0  0  0  0  0  0  0  0  0  0  0
   -0.2265    3.6844   -1.4816 C   0  0  0  0  0  0  0  0  0  0  0  0
    0.2310    4.1646    0.9565 C   0  0  0  0  0  0  0  0  0  0  0  0
   -0.5314    4.5937   -0.2940 C   0  0  0  0  0  0  0  0  0  0  0  0
    1.0026   -0.6152    0.4441 C   0  0  0  0  0  0  0  0  0  0  0  0
   -1.1119   -0.2513    0.7683 C   0  0  0  0  0  0  0  0  0  0  0  0
    2.4219   -0.3711    0.1296 C   0  0  0  0  0  0  0  0  0  0  0  0
   -3.7342   -0.7835    1.3630 C   0  0  2  0  0  0  0  0  0  0  0  0
   -5.1332   -0.3835    0.9759 C   0  0  0  0  0  0  0  0  0  0  0  0
   -6.8003   -0.2750   -0.8540 C   0  0  0  0  0  0  0  0  0  0  0  0
   -3.6488   -1.0478    2.8564 C   0  0  0  0  0  0  0  0  0  0  0  0
   -6.9531   -0.9728   -2.1889 C   0  0  0  0  0  0  0  0  0  0  0  0
    4.6509   -1.4867    0.0175 C   0  0  0  0  0  0  0  0  0  0  0  0
   -4.7733   -1.3603   -1.3831 C   0  0  0  0  0  0  0  0  0  0  0  0
    5.2690   -0.2640   -0.2445 C   0  0  0  0  0  0  0  0  0  0  0  0
    5.4144   -2.6513    0.0971 C   0  0  0  0  0  0  0  0  0  0  0  0
    6.6506   -0.2059   -0.4268 C   0  0  0  0  0  0  0  0  0  0  0  0
    6.7960   -2.5933   -0.0852 C   0  0  0  0  0  0  0  0  0  0  0  0
    7.4140   -1.3706   -0.3472 C   0  0  0  0  0  0  0  0  0  0  0  0
    6.4141    2.1383   -0.7504 C   0  0  0  0  0  0  0  0  0  0  0  0
    1.3393    1.8944   -0.1137 H   0  0  0  0  0  0  0  0  0  0  0  0
   -0.1874    1.5948   -2.0023 H   0  0  0  0  0  0  0  0  0  0  0  0
   -1.5726    2.0909   -1.0560 H   0  0  0  0  0  0  0  0  0  0  0  0
    0.5935    2.4142    2.1580 H   0  0  0  0  0  0  0  0  0  0  0  0
   -1.0658    2.6224    1.6442 H   0  0  0  0  0  0  0  0  0  0  0  0
    0.8234    3.8074   -1.7749 H   0  0  0  0  0  0  0  0  0  0  0  0
   -0.8344    3.9850   -2.3424 H   0  0  0  0  0  0  0  0  0  0  0  0
    1.3061    4.3140    0.7973 H   0  0  0  0  0  0  0  0  0  0  0  0
   -0.0568    4.8010    1.8010 H   0  0  0  0  0  0  0  0  0  0  0  0
   -1.6088    4.5754   -0.0882 H   0  0  0  0  0  0  0  0  0  0  0  0
   -0.2717    5.6278   -0.5464 H   0  0  0  0  0  0  0  0  0  0  0  0
    2.7886    0.3763    0.8450 H   0  0  0  0  0  0  0  0  0  0  0  0
    2.4845    0.0486   -0.8823 H   0  0  0  0  0  0  0  0  0  0  0  0
   -3.4654   -1.7212    0.8761 H   0  0  0  0  0  0  0  0  0  0  0  0
    2.8617   -2.4479    0.3747 H   0  0  0  0  0  0  0  0  0  0  0  0
   -6.7697    0.8144   -0.9708 H   0  0  0  0  0  0  0  0  0  0  0  0
   -7.6021   -0.5195   -0.1500 H   0  0  0  0  0  0  0  0  0  0  0  0
   -4.3687   -1.8210    3.1500 H   0  0  0  0  0  0  0  0  0  0  0  0
   -2.6552   -1.4023    3.1507 H   0  0  0  0  0  0  0  0  0  0  0  0
   -3.8780   -0.1558    3.4516 H   0  0  0  0  0  0  0  0  0  0  0  0
   -7.6144   -1.8419   -2.1189 H   0  0  0  0  0  0  0  0  0  0  0  0
   -7.3073   -0.3089   -2.9814 H   0  0  0  0  0  0  0  0  0  0  0  0
   -5.3716   -1.8838   -3.3703 H   0  0  0  0  0  0  0  0  0  0  0  0
    4.6589    0.6274   -0.3081 H   0  0  0  0  0  0  0  0  0  0  0  0
    4.9460   -3.6110    0.3007 H   0  0  0  0  0  0  0  0  0  0  0  0
    7.3907   -3.5000   -0.0232 H   0  0  0  0  0  0  0  0  0  0  0  0
    8.4908   -1.3316   -0.4883 H   0  0  0  0  0  0  0  0  0  0  0  0
    5.7011    2.0695   -1.5791 H   0  0  0  0  0  0  0  0  0  0  0  0
    5.9232    2.3374    0.2084 H   0  0  0  0  0  0  0  0  0  0  0  0
    7.0611    2.9966   -0.9594 H   0  0  0  0  0  0  0  0  0  0  0  0
  1 18  1  0  0  0  0
  1 20  1  0  0  0  0
  2 21  2  0  0  0  0
  3 26  2  0  0  0  0
  4 29  1  0  0  0  0
  4 32  1  0  0  0  0
  5 11  1  0  0  0  0
  5 17  1  0  0  0  0
  5 18  1  0  0  0  0
  6  7  1  0  0  0  0
  6 17  2  0  0  0  0
  7 18  2  0  0  0  0
  8 19  1  0  0  0  0
  8 25  1  0  0  0  0
  8 47  1  0  0  0  0
  9 21  1  0  0  0  0
  9 22  1  0  0  0  0
  9 26  1  0  0  0  0
 10 24  1  0  0  0  0
 10 26  1  0  0  0  0
 10 55  1  0  0  0  0
 11 12  1  0  0  0  0
 11 13  1  0  0  0  0
 11 33  1  0  0  0  0
 12 14  1  0  0  0  0
 12 34  1  0  0  0  0
 12 35  1  0  0  0  0
 13 15  1  0  0  0  0
 13 36  1  0  0  0  0
 13 37  1  0  0  0  0
 14 16  1  0  0  0  0
 14 38  1  0  0  0  0
 14 39  1  0  0  0  0
 15 16  1  0  0  0  0
 15 40  1  0  0  0  0
 15 41  1  0  0  0  0
 16 42  1  0  0  0  0
 16 43  1  0  0  0  0
 17 19  1  0  0  0  0
 19 44  1  0  0  0  0
 19 45  1  0  0  0  0
 20 21  1  0  0  0  0
 20 23  1  0  0  0  0
 20 46  1  0  0  0  0
 22 24  1  0  0  0  0
 22 48  1  0  0  0  0
 22 49  1  0  0  0  0
 23 50  1  0  0  0  0
 23 51  1  0  0  0  0
 23 52  1  0  0  0  0
 24 53  1  0  0  0  0
 24 54  1  0  0  0  0
 25 27  2  0  0  0  0
 25 28  1  0  0  0  0
 27 29  1  0  0  0  0
 27 56  1  0  0  0  0
 28 30  2  0  0  0  0
 28 57  1  0  0  0  0
 29 31  2  0  0  0  0
 30 31  1  0  0  0  0
 30 58  1  0  0  0  0
 31 59  1  0  0  0  0
 32 60  1  0  0  0  0
 32 61  1  0  0  0  0
 32 62  1  0  0  0  0
M  END
> <PUBCHEM_COMPOUND_CID>
17395600

> <PUBCHEM_CONFORMER_RMSD>
1.4

> <PUBCHEM_CONFORMER_DIVERSEORDER>
1
50
121
7
175
131
140
169
49
92
159
168
71
111
83
114
34
89
97
122
160
158
53
145
98
54
155
141
43
120
90
165
123
84
147
26
40
13
152
36
67
105
76
104
103
166
77
30
99
41
95
113
157
93
69
170
161
106
148
58
45
130
96
146
144
127
48
135
25
108
85
129
87
2
38
143
60
125
47
156
132
91
110
80
18
9
17
79
142
173
65
44
112
107
109
88
59
4
86
151
174
19
74
133
94
35
10
62
78
115
73
153
126
29
37
52
39
102
16
61
46
81
55
32
63
22
68
162
28
12
136
5
56
24
172
15
154
116
64
117
3
14
82
138
171
128
101
137
21
31
66
134
6
57
23
124
72
119
70
139
149
75
20
150
118
163
33
167
11
27
164
8
100
51
42

> <PUBCHEM_MMFF94_PARTIAL_CHARGES>
32
1 -0.29
10 -0.73
11 0.26
17 0.01
18 0.24
19 0.55
2 -0.57
20 0.29
21 0.57
22 0.3
24 0.3
25 0.1
26 0.69
27 -0.15
28 -0.15
29 0.08
3 -0.57
30 -0.15
31 -0.15
32 0.28
4 -0.36
47 0.4
5 0.05
55 0.37
56 0.15
57 0.15
58 0.15
59 0.15
6 -0.34
7 -0.34
8 -0.87
9 -0.42

> <PUBCHEM_EFFECTIVE_ROTOR_COUNT>
11

> <PUBCHEM_PHARMACOPHORE_FEATURES>
13
1 10 donor
1 2 acceptor
1 23 hydrophobe
1 3 acceptor
1 4 acceptor
1 8 cation
1 8 donor
3 5 6 17 cation
3 5 7 18 cation
5 5 6 7 17 18 rings
5 9 10 22 24 26 rings
6 11 12 13 14 15 16 rings
6 25 27 28 29 30 31 rings

> <PUBCHEM_HEAVY_ATOM_COUNT>
32

> <PUBCHEM_ATOM_DEF_STEREO_COUNT>
0

> <PUBCHEM_ATOM_UDEF_STEREO_COUNT>
1

> <PUBCHEM_BOND_DEF_STEREO_COUNT>
0

> <PUBCHEM_BOND_UDEF_STEREO_COUNT>
0

> <PUBCHEM_ISOTOPIC_ATOM_COUNT>
0

> <PUBCHEM_COMPONENT_COUNT>
1

> <PUBCHEM_CACTVS_TAUTO_COUNT>
2

> <PUBCHEM_CONFORMER_ID>
01096F9000000001

> <PUBCHEM_MMFF94_ENERGY>
83.8614

> <PUBCHEM_FEATURE_SELFOVERLAP>
68.47

> <PUBCHEM_SHAPE_FINGERPRINT>
10165383 225 16773794840792645243
10930396 42 18197524894994226960
10940486 97 17896047546436934031
11101153 10 18341043091090158936
11135926 11 17988358273402260083
11297750 10 17271138948975659443
11497681 19 18040711511422202726
12758862 11 17131832066670179511
12788726 201 18129388261672241194
13590594 115 18409731772852793385
13726171 33 14332024762060739943
13911987 19 18059859488813057291
14068700 675 17821452348449971273
14118638 360 18200307849519775946
14347332 77 18266180707319435290
14556957 393 18201142356373305852
14840074 17 18333165068348685662
15131766 46 16011029401993920600
15183329 4 18260553324481887038
15198563 99 18130507560436247148
15276724 80 18409167731797850428
16994733 274 14045748122732679765
21424621 283 11600004370629233710
21792961 116 17489868280144039715
23522609 53 17823389692259752984
23559900 14 18339642213964260265
23576562 1 18058455301317204839
24771750 20 17482533206136421116
283562 15 18198901598841053146
3009799 131 17704354368280893366
5171179 24 18261406528393899993
5219985 9 18333735727530779241
54039377 194 18040718010098456031
5969126 39 18338801220570767348
6009941 240 17060615581626403906

> <PUBCHEM_SHAPE_MULTIPOLES>
614.9
20.03
4.16
1.84
14.57
6.29
0.05
-14.19
-7.68
2.53
-0.43
-4.47
-0.37
-1.37

> <PUBCHEM_SHAPE_SELFOVERLAP>
1284.042

> <PUBCHEM_SHAPE_VOLUME>
350.2

> <PUBCHEM_COORDINATE_TYPE>
2
5
10

$$$$

