13969
  -OEChem-06241222413D

 47 48  0     1  0  0  0  0  0999 V2000
   -3.4762    1.0970   -0.5141 O   0  0  0  0  0  0  0  0  0  0  0  0
    0.2675    0.9739    0.2966 O   0  0  0  0  0  0  0  0  0  0  0  0
    0.7995   -3.5829   -0.4622 O   0  0  0  0  0  0  0  0  0  0  0  0
    4.4365   -1.0226    0.6275 O   0  0  0  0  0  0  0  0  0  0  0  0
   -5.3843    1.1866    0.7853 O   0  0  0  0  0  0  0  0  0  0  0  0
    0.4258   -1.3389    0.0643 N   0  0  0  0  0  0  0  0  0  0  0  0
    2.5885   -2.2936    0.1373 N   0  0  0  0  0  0  0  0  0  0  0  0
   -0.9588   -1.4477   -0.3274 C   0  0  0  0  0  0  0  0  0  0  0  0
   -1.8764   -1.0627    0.8351 C   0  0  0  0  0  0  0  0  0  0  0  0
   -1.2401   -0.5949   -1.5669 C   0  0  0  0  0  0  0  0  0  0  0  0
   -3.6433   -0.2873   -0.8127 C   0  0  0  0  0  0  0  0  0  0  0  0
   -3.3503   -1.1249    0.4328 C   0  0  0  0  0  0  0  0  0  0  0  0
   -2.7143   -0.6551   -1.9693 C   0  0  0  0  0  0  0  0  0  0  0  0
    2.2593   -0.0981    1.1156 C   0  0  2  0  0  0  0  0  0  0  0  0
    0.9015   -0.0725    0.4380 C   0  0  0  0  0  0  0  0  0  0  0  0
    1.2283   -2.4857   -0.0948 C   0  0  0  0  0  0  0  0  0  0  0  0
    2.9094    1.2846    1.1072 C   0  0  0  0  0  0  0  0  0  0  0  0
    3.2137   -1.1444    0.5905 C   0  0  0  0  0  0  0  0  0  0  0  0
    3.2858    1.7093   -0.3090 C   0  0  0  0  0  0  0  0  0  0  0  0
    3.9064    3.1061   -0.3168 C   0  0  0  0  0  0  0  0  0  0  0  0
   -4.2679    1.5880    0.4860 C   0  0  0  0  0  0  0  0  0  0  0  0
    4.2545    3.5532   -1.7276 C   0  0  0  0  0  0  0  0  0  0  0  0
   -3.5652    2.7127    1.1843 C   0  0  0  0  0  0  0  0  0  0  0  0
   -1.1944   -2.4865   -0.5898 H   0  0  0  0  0  0  0  0  0  0  0  0
   -1.7065   -1.7471    1.6762 H   0  0  0  0  0  0  0  0  0  0  0  0
   -1.6674   -0.0601    1.2204 H   0  0  0  0  0  0  0  0  0  0  0  0
   -0.9830    0.4594   -1.4467 H   0  0  0  0  0  0  0  0  0  0  0  0
   -0.6274   -0.9547   -2.4036 H   0  0  0  0  0  0  0  0  0  0  0  0
   -4.6788   -0.4490   -1.1376 H   0  0  0  0  0  0  0  0  0  0  0  0
   -3.9596   -0.8278    1.2919 H   0  0  0  0  0  0  0  0  0  0  0  0
   -3.6104   -2.1701    0.2209 H   0  0  0  0  0  0  0  0  0  0  0  0
   -2.9506   -1.6678   -2.3185 H   0  0  0  0  0  0  0  0  0  0  0  0
   -2.8772    0.0278   -2.8115 H   0  0  0  0  0  0  0  0  0  0  0  0
    2.0609   -0.3702    2.1621 H   0  0  0  0  0  0  0  0  0  0  0  0
    2.2308    2.0249    1.5493 H   0  0  0  0  0  0  0  0  0  0  0  0
    3.8095    1.2766    1.7351 H   0  0  0  0  0  0  0  0  0  0  0  0
    3.1963   -3.0730   -0.0995 H   0  0  0  0  0  0  0  0  0  0  0  0
    4.0009    1.0118   -0.7575 H   0  0  0  0  0  0  0  0  0  0  0  0
    2.4036    1.7145   -0.9589 H   0  0  0  0  0  0  0  0  0  0  0  0
    4.8140    3.1141    0.2980 H   0  0  0  0  0  0  0  0  0  0  0  0
    3.2084    3.8271    0.1244 H   0  0  0  0  0  0  0  0  0  0  0  0
    3.3616    3.5886   -2.3599 H   0  0  0  0  0  0  0  0  0  0  0  0
    4.9758    2.8710   -2.1889 H   0  0  0  0  0  0  0  0  0  0  0  0
    4.6973    4.5540   -1.7094 H   0  0  0  0  0  0  0  0  0  0  0  0
   -4.2046    3.0995    1.9829 H   0  0  0  0  0  0  0  0  0  0  0  0
   -2.6348    2.3503    1.6282 H   0  0  0  0  0  0  0  0  0  0  0  0
   -3.3648    3.5206    0.4762 H   0  0  0  0  0  0  0  0  0  0  0  0
  1 11  1  0  0  0  0
  1 21  1  0  0  0  0
  2 15  2  0  0  0  0
  3 16  2  0  0  0  0
  4 18  2  0  0  0  0
  5 21  2  0  0  0  0
  6  8  1  0  0  0  0
  6 15  1  0  0  0  0
  6 16  1  0  0  0  0
  7 16  1  0  0  0  0
  7 18  1  0  0  0  0
  7 37  1  0  0  0  0
  8  9  1  0  0  0  0
  8 10  1  0  0  0  0
  8 24  1  0  0  0  0
  9 12  1  0  0  0  0
  9 25  1  0  0  0  0
  9 26  1  0  0  0  0
 10 13  1  0  0  0  0
 10 27  1  0  0  0  0
 10 28  1  0  0  0  0
 11 12  1  0  0  0  0
 11 13  1  0  0  0  0
 11 29  1  0  0  0  0
 12 30  1  0  0  0  0
 12 31  1  0  0  0  0
 13 32  1  0  0  0  0
 13 33  1  0  0  0  0
 14 15  1  0  0  0  0
 14 17  1  0  0  0  0
 14 18  1  0  0  0  0
 14 34  1  0  0  0  0
 17 19  1  0  0  0  0
 17 35  1  0  0  0  0
 17 36  1  0  0  0  0
 19 20  1  0  0  0  0
 19 38  1  0  0  0  0
 19 39  1  0  0  0  0
 20 22  1  0  0  0  0
 20 40  1  0  0  0  0
 20 41  1  0  0  0  0
 21 23  1  0  0  0  0
 22 42  1  0  0  0  0
 22 43  1  0  0  0  0
 22 44  1  0  0  0  0
 23 45  1  0  0  0  0
 23 46  1  0  0  0  0
 23 47  1  0  0  0  0
M  END
> <PUBCHEM_COMPOUND_CID>
13969

> <PUBCHEM_CONFORMER_RMSD>
0.8

> <PUBCHEM_CONFORMER_DIVERSEORDER>
1
62
73
71
34
53
82
41
92
45
76
67
26
81
84
11
29
20
54
8
77
89
91
12
86
37
88
80
32
16
22
75
52
21
94
50
57
90
87
74
39
14
78
51
63
59
70
17
2
85
27
46
79
93
83
58
47
24
6
42
28
60
64
35
30
61
40
13
48
7
72
25
66
43
31
4
38
65
3
5
23
36
68
10
15
33
9
49
19
44
18
56
69
55

> <PUBCHEM_MMFF94_PARTIAL_CHARGES>
16
1 -0.43
11 0.28
14 0.12
15 0.57
16 0.69
18 0.57
2 -0.57
21 0.66
23 0.06
3 -0.57
37 0.37
4 -0.57
5 -0.57
6 -0.42
7 -0.49
8 0.3

> <PUBCHEM_EFFECTIVE_ROTOR_COUNT>
7.8

> <PUBCHEM_PHARMACOPHORE_FEATURES>
9
1 14 anion
1 2 acceptor
1 22 hydrophobe
1 3 acceptor
1 4 acceptor
1 5 acceptor
1 7 donor
6 6 7 14 15 16 18 rings
6 8 9 10 11 12 13 rings

> <PUBCHEM_HEAVY_ATOM_COUNT>
23

> <PUBCHEM_ATOM_DEF_STEREO_COUNT>
0

> <PUBCHEM_ATOM_UDEF_STEREO_COUNT>
1

> <PUBCHEM_BOND_DEF_STEREO_COUNT>
0

> <PUBCHEM_BOND_UDEF_STEREO_COUNT>
0

> <PUBCHEM_ISOTOPIC_ATOM_COUNT>
0

> <PUBCHEM_COMPONENT_COUNT>
1

> <PUBCHEM_CACTVS_TAUTO_COUNT>
3

> <PUBCHEM_CONFORMER_ID>
0000369100000001

> <PUBCHEM_MMFF94_ENERGY>
43.9639

> <PUBCHEM_FEATURE_SELFOVERLAP>
45.669

> <PUBCHEM_SHAPE_FINGERPRINT>
10670039 82 18338513024313669116
10759866 29 18334287691116301609
11582403 64 15795708676835206416
11615756 256 18411704266020024233
12173636 292 18191594046888973206
12633257 1 17988093282240401811
12788726 201 17903932049493039087
13583140 156 16915410807945536114
13590594 115 18057612164819381512
14251764 38 18123474045168559373
14251764 75 18056186982711580996
14713325 29 17625250919386031058
14790565 3 18338513045846410696
15163728 17 18266440054070794836
15342168 16 18341614785201115957
15475509 8 18262509421114985742
1601671 61 18265336277904399490
18785283 64 18342736355664866418
20567600 9 18341038662741649860
20739085 24 18273212015000897244
21033648 29 16486988305405739453
21304253 335 18187378627383707208
21475661 188 18054513770995643637
21756936 100 18118964694231124580
21864079 5 18408882901987516012
22907989 373 17761504586217276126
23559900 14 18262806279657021146
38570 142 18265590166058599188
394222 165 18201165356239284210
474 4 18411707598967360979
6034566 193 17628055807814112188
6287921 2 18343017813287817028
633830 44 18335421257444588398
76465 3 8718559297639167933
7808743 9 18051691036736601664

> <PUBCHEM_SHAPE_MULTIPOLES>
434.02
9.53
3.76
1.39
1.89
0.88
0.51
7.93
-0.22
-3.17
0.51
0.23
0.49
-2.43

> <PUBCHEM_SHAPE_SELFOVERLAP>
891.452

> <PUBCHEM_SHAPE_VOLUME>
244.6

> <PUBCHEM_COORDINATE_TYPE>
2
5
10

$$$$

