10622
  -OEChem-06261204463D

 75 79  0     1  0  0  0  0  0999 V2000
    2.3096    1.5185    0.0527 O   0  0  0  0  0  0  0  0  0  0  0  0
    4.6940   -1.6383   -1.9172 O   0  0  0  0  0  0  0  0  0  0  0  0
    4.7212    0.5049   -0.8987 O   0  0  0  0  0  0  0  0  0  0  0  0
    4.3534    3.8542   -1.8918 O   0  0  0  0  0  0  0  0  0  0  0  0
    3.9479    5.2429    0.6108 O   0  0  0  0  0  0  0  0  0  0  0  0
    0.8456    1.8128    1.8454 O   0  0  0  0  0  0  0  0  0  0  0  0
    1.2973    4.6040    1.7275 O   0  0  0  0  0  0  0  0  0  0  0  0
    7.4680   -1.8541   -1.1967 O   0  0  0  0  0  0  0  0  0  0  0  0
    6.9476   -2.3285    1.4957 O   0  0  0  0  0  0  0  0  0  0  0  0
    4.3254   -3.4348    1.2806 O   0  0  0  0  0  0  0  0  0  0  0  0
   -3.3990    0.0775    0.5000 O   0  0  0  0  0  0  0  0  0  0  0  0
    0.4657   -2.8144    1.0137 O   0  0  0  0  0  0  0  0  0  0  0  0
   -1.9098   -3.8147    0.2635 O   0  0  0  0  0  0  0  0  0  0  0  0
   -9.5658    0.3256   -0.9716 O   0  0  0  0  0  0  0  0  0  0  0  0
   -7.5468    2.1721   -1.4572 O   0  0  0  0  0  0  0  0  0  0  0  0
    2.9218    2.0776   -1.1108 C   0  0  1  0  0  0  0  0  0  0  0  0
    3.8163    3.2549   -0.7155 C   0  0  2  0  0  0  0  0  0  0  0  0
    3.0220    4.3008    0.0672 C   0  0  1  0  0  0  0  0  0  0  0  0
    2.2263    3.6561    1.2021 C   0  0  2  0  0  0  0  0  0  0  0  0
    6.5625   -1.0028   -0.4923 C   0  0  1  0  0  0  0  0  0  0  0  0
    5.4973   -0.5357   -1.4825 C   0  0  1  0  0  0  0  0  0  0  0  0
    5.9287   -1.7656    0.6722 C   0  0  1  0  0  0  0  0  0  0  0  0
    5.0177   -2.8834    0.1633 C   0  0  2  0  0  0  0  0  0  0  0  0
    1.4423    2.4394    0.7103 C   0  0  1  0  0  0  0  0  0  0  0  0
    4.0181   -2.3248   -0.8588 C   0  0  2  0  0  0  0  0  0  0  0  0
    3.7171    0.9675   -1.7905 C   0  0  0  0  0  0  0  0  0  0  0  0
    3.1838   -3.4278   -1.5045 C   0  0  0  0  0  0  0  0  0  0  0  0
    0.1208    0.6950    1.4856 C   0  0  0  0  0  0  0  0  0  0  0  0
   -1.2746    0.8952    1.1651 C   0  0  0  0  0  0  0  0  0  0  0  0
    0.7019   -0.5107    1.4410 C   0  0  0  0  0  0  0  0  0  0  0  0
   -2.0566   -0.1327    0.8052 C   0  0  0  0  0  0  0  0  0  0  0  0
   -1.5277   -1.4905    0.7242 C   0  0  0  0  0  0  0  0  0  0  0  0
   -0.0797   -1.7174    1.0523 C   0  0  0  0  0  0  0  0  0  0  0  0
   -2.3312   -2.5074    0.3625 C   0  0  0  0  0  0  0  0  0  0  0  0
   -4.2010   -0.9972    0.1252 C   0  0  0  0  0  0  0  0  0  0  0  0
   -3.7221   -2.2518    0.0547 C   0  0  0  0  0  0  0  0  0  0  0  0
   -5.6050   -0.6475   -0.1626 C   0  0  0  0  0  0  0  0  0  0  0  0
   -5.9245    0.6108   -0.6811 C   0  0  0  0  0  0  0  0  0  0  0  0
   -6.6244   -1.5723    0.0813 C   0  0  0  0  0  0  0  0  0  0  0  0
   -7.2520    0.9414   -0.9535 C   0  0  0  0  0  0  0  0  0  0  0  0
   -7.9520   -1.2416   -0.1909 C   0  0  0  0  0  0  0  0  0  0  0  0
   -8.2658    0.0151   -0.7084 C   0  0  0  0  0  0  0  0  0  0  0  0
  -10.3145    0.9278    0.0824 C   0  0  0  0  0  0  0  0  0  0  0  0
    2.1412    2.4055   -1.8101 H   0  0  0  0  0  0  0  0  0  0  0  0
    4.6590    2.9266   -0.0939 H   0  0  0  0  0  0  0  0  0  0  0  0
    2.3594    4.8664   -0.5995 H   0  0  0  0  0  0  0  0  0  0  0  0
    2.8955    3.3782    2.0251 H   0  0  0  0  0  0  0  0  0  0  0  0
    7.1435   -0.1576   -0.1074 H   0  0  0  0  0  0  0  0  0  0  0  0
    5.9959   -0.1414   -2.3766 H   0  0  0  0  0  0  0  0  0  0  0  0
    5.3525   -1.0785    1.3045 H   0  0  0  0  0  0  0  0  0  0  0  0
    5.6189   -3.6893   -0.2730 H   0  0  0  0  0  0  0  0  0  0  0  0
    0.6445    2.7561    0.0230 H   0  0  0  0  0  0  0  0  0  0  0  0
    3.3207   -1.6360   -0.3658 H   0  0  0  0  0  0  0  0  0  0  0  0
    4.1706    1.3201   -2.7233 H   0  0  0  0  0  0  0  0  0  0  0  0
    3.0277    0.1494   -2.0285 H   0  0  0  0  0  0  0  0  0  0  0  0
    2.6065   -3.9840   -0.7602 H   0  0  0  0  0  0  0  0  0  0  0  0
    3.8219   -4.1305   -2.0515 H   0  0  0  0  0  0  0  0  0  0  0  0
    2.4882   -3.0001   -2.2349 H   0  0  0  0  0  0  0  0  0  0  0  0
    5.0425    3.2630   -2.2383 H   0  0  0  0  0  0  0  0  0  0  0  0
    4.4472    5.6227   -0.1325 H   0  0  0  0  0  0  0  0  0  0  0  0
    0.6939    4.8641    1.0107 H   0  0  0  0  0  0  0  0  0  0  0  0
    6.9505   -2.5249   -1.6731 H   0  0  0  0  0  0  0  0  0  0  0  0
    7.5151   -1.5991    1.7981 H   0  0  0  0  0  0  0  0  0  0  0  0
    3.7588   -2.7398    1.6571 H   0  0  0  0  0  0  0  0  0  0  0  0
   -1.6750    1.9024    1.2252 H   0  0  0  0  0  0  0  0  0  0  0  0
    1.7480   -0.6541    1.6898 H   0  0  0  0  0  0  0  0  0  0  0  0
   -4.3366   -3.0924   -0.2489 H   0  0  0  0  0  0  0  0  0  0  0  0
   -2.6597   -4.3699   -0.0094 H   0  0  0  0  0  0  0  0  0  0  0  0
   -5.1483    1.3448   -0.8863 H   0  0  0  0  0  0  0  0  0  0  0  0
   -6.4214   -2.5539    0.5015 H   0  0  0  0  0  0  0  0  0  0  0  0
   -8.7373   -1.9667    0.0055 H   0  0  0  0  0  0  0  0  0  0  0  0
   -8.5040    2.2172   -1.6235 H   0  0  0  0  0  0  0  0  0  0  0  0
  -11.3167    1.1508   -0.2936 H   0  0  0  0  0  0  0  0  0  0  0  0
  -10.4033    0.2392    0.9286 H   0  0  0  0  0  0  0  0  0  0  0  0
   -9.8466    1.8626    0.4072 H   0  0  0  0  0  0  0  0  0  0  0  0
  1 16  1  0  0  0  0
  1 24  1  0  0  0  0
  2 21  1  0  0  0  0
  2 25  1  0  0  0  0
  3 21  1  0  0  0  0
  3 26  1  0  0  0  0
  4 17  1  0  0  0  0
  4 59  1  0  0  0  0
  5 18  1  0  0  0  0
  5 60  1  0  0  0  0
  6 24  1  0  0  0  0
  6 28  1  0  0  0  0
  7 19  1  0  0  0  0
  7 61  1  0  0  0  0
  8 20  1  0  0  0  0
  8 62  1  0  0  0  0
  9 22  1  0  0  0  0
  9 63  1  0  0  0  0
 10 23  1  0  0  0  0
 10 64  1  0  0  0  0
 11 31  1  0  0  0  0
 11 35  1  0  0  0  0
 12 33  2  0  0  0  0
 13 34  1  0  0  0  0
 13 68  1  0  0  0  0
 14 42  1  0  0  0  0
 14 43  1  0  0  0  0
 15 40  1  0  0  0  0
 15 72  1  0  0  0  0
 16 17  1  0  0  0  0
 16 26  1  0  0  0  0
 16 44  1  0  0  0  0
 17 18  1  0  0  0  0
 17 45  1  0  0  0  0
 18 19  1  0  0  0  0
 18 46  1  0  0  0  0
 19 24  1  0  0  0  0
 19 47  1  0  0  0  0
 20 21  1  0  0  0  0
 20 22  1  0  0  0  0
 20 48  1  0  0  0  0
 21 49  1  0  0  0  0
 22 23  1  0  0  0  0
 22 50  1  0  0  0  0
 23 25  1  0  0  0  0
 23 51  1  0  0  0  0
 24 52  1  0  0  0  0
 25 27  1  0  0  0  0
 25 53  1  0  0  0  0
 26 54  1  0  0  0  0
 26 55  1  0  0  0  0
 27 56  1  0  0  0  0
 27 57  1  0  0  0  0
 27 58  1  0  0  0  0
 28 29  1  0  0  0  0
 28 30  2  0  0  0  0
 29 31  2  0  0  0  0
 29 65  1  0  0  0  0
 30 33  1  0  0  0  0
 30 66  1  0  0  0  0
 31 32  1  0  0  0  0
 32 33  1  0  0  0  0
 32 34  2  0  0  0  0
 34 36  1  0  0  0  0
 35 36  2  0  0  0  0
 35 37  1  0  0  0  0
 36 67  1  0  0  0  0
 37 38  2  0  0  0  0
 37 39  1  0  0  0  0
 38 40  1  0  0  0  0
 38 69  1  0  0  0  0
 39 41  2  0  0  0  0
 39 70  1  0  0  0  0
 40 42  2  0  0  0  0
 41 42  1  0  0  0  0
 41 71  1  0  0  0  0
 43 73  1  0  0  0  0
 43 74  1  0  0  0  0
 43 75  1  0  0  0  0
M  END
> <PUBCHEM_COMPOUND_CID>
10622

> <PUBCHEM_CONFORMER_RMSD>
1.4

> <PUBCHEM_CONFORMER_DIVERSEORDER>
2
83
80
124
207
219
21
160
251
154
236
111
31
267
211
140
228
54
239
30
22
77
179
223
52
144
117
168
186
53
220
136
130
33
62
238
166
74
262
184
226
263
28
69
16
258
142
113
104
206
178
249
8
165
61
200
19
224
204
194
107
227
257
175
65
161
42
119
114
203
89
183
158
241
171
172
162
60
215
159
260
190
102
68
7
176
99
96
67
193
92
4
248
210
167
255
18
150
17
135
222
252
139
26
78
87
244
121
47
116
108
169
10
145
5
229
191
221
192
134
12
143
72
127
40
181
64
151
101
20
174
49
212
185
243
79
234
148
90
3
100
106
173
259
112
254
199
265
15
213
97
55
1
6
153
208
94
86
129
128
214
76
14
141
253
146
188
133
170
138
256
197
9
103
23
35
132
93
50
261
196
268
44
218
198
43
209
266
195
41
71
125
25
120
48
164
98
105
34
240
32
126
63
156
137
13
201
245
11
237
247
88
57
51
152
91
118
38
250
24
122
39
242
84
82
231
205
131
75
123
177
36
70
216
85
157
29
246
58
59
233
187
45
27
189
110
155
95
81
46
109
235
232
73
115
163
66
230
37
147
264
56
202
225
149
182
180
217

> <PUBCHEM_MMFF94_PARTIAL_CHARGES>
56
1 -0.56
10 -0.68
11 -0.15
12 -0.57
13 -0.53
14 -0.36
15 -0.53
16 0.28
17 0.28
18 0.28
19 0.28
2 -0.56
20 0.28
21 0.56
22 0.28
23 0.28
24 0.56
25 0.28
26 0.28
28 0.08
29 -0.15
3 -0.56
30 -0.14
31 0.08
32 0.01
33 0.54
34 0.08
35 0.05
36 -0.15
37 0.03
38 -0.15
39 -0.15
4 -0.68
40 0.08
41 -0.15
42 0.08
43 0.28
5 -0.68
59 0.4
6 -0.36
60 0.4
61 0.4
62 0.4
63 0.4
64 0.4
65 0.15
66 0.15
67 0.15
68 0.45
69 0.15
7 -0.68
70 0.15
71 0.15
72 0.45
8 -0.68
9 -0.68

> <PUBCHEM_EFFECTIVE_ROTOR_COUNT>
9.4

> <PUBCHEM_PHARMACOPHORE_FEATURES>
26
1 1 acceptor
1 10 acceptor
1 10 donor
1 11 acceptor
1 12 acceptor
1 13 donor
1 14 acceptor
1 15 donor
1 2 acceptor
1 3 acceptor
1 4 acceptor
1 4 donor
1 5 acceptor
1 5 donor
1 6 acceptor
1 7 acceptor
1 7 donor
1 8 acceptor
1 8 donor
1 9 acceptor
1 9 donor
6 1 16 17 18 19 24 rings
6 11 31 32 34 35 36 rings
6 2 20 21 22 23 25 rings
6 28 29 30 31 32 33 rings
6 37 38 39 40 41 42 rings

> <PUBCHEM_HEAVY_ATOM_COUNT>
43

> <PUBCHEM_ATOM_DEF_STEREO_COUNT>
10

> <PUBCHEM_ATOM_UDEF_STEREO_COUNT>
0

> <PUBCHEM_BOND_DEF_STEREO_COUNT>
0

> <PUBCHEM_BOND_UDEF_STEREO_COUNT>
0

> <PUBCHEM_ISOTOPIC_ATOM_COUNT>
0

> <PUBCHEM_COMPONENT_COUNT>
1

> <PUBCHEM_CACTVS_TAUTO_COUNT>
12

> <PUBCHEM_CONFORMER_ID>
0000297E00000002

> <PUBCHEM_MMFF94_ENERGY>
144.1954

> <PUBCHEM_FEATURE_SELFOVERLAP>
132.077

> <PUBCHEM_SHAPE_FINGERPRINT>
10050765 1 18267027142194567947
10258939 38 6338964325653030083
10483366 6 18412260666485825377
10721379 63 18272095984923087496
10816530 90 18342745113145303387
11062273 29 18336559217756871452
11146346 171 18059846265510755555
11146851 88 18408603678085897862
11456790 92 17703793660432581610
11607047 191 17026016026283360632
11720765 8 18187647977214950752
12144600 37 18269833130571158531
12373685 5 15285935615137428901
12857493 111 18334015033924201593
13383668 40 18335149674442711728
13617811 41 18335424624567579834
13947947 73 18272370909906366895
14068700 675 18337386141433743944
14117953 113 18334566976266697510
15183329 4 18409441514382735967
15297060 5 10879697760039937638
15351334 14 18269293296062685663
15439362 3 18196374723884393416
19053607 189 17912079448146114300
21133410 58 18407761434456203943
21362857 166 17460056006605732551
23559900 14 18261956237257806258
24771750 20 18266170630555954318
249057 3 18409450288763856655
397830 11 7637411709476571905
4066623 53 18411420634981144733
4394409 98 18335702762418252038
463206 1 18338780257579285218
5223283 242 17989480827276202021
5265222 85 17257645622168505352
6004065 56 18407760357051323352
9831232 110 18408888438749571399

> <PUBCHEM_SHAPE_MULTIPOLES>
796.88
24.49
5.62
1.63
52.77
5.19
0.12
-3.59
9.8
-10.69
-0.84
-1.81
0.39
0.75

> <PUBCHEM_SHAPE_SELFOVERLAP>
1723.458

> <PUBCHEM_SHAPE_VOLUME>
431.3

> <PUBCHEM_COORDINATE_TYPE>
2
5
10

$$$$

