6667
  -OEChem-06261201263D

 24 25  0     0  0  0  0  0  0999 V2000
   -2.8979   -0.0052   -0.0736 S   0  0  0  0  0  0  0  0  0  0  0  0
   -3.2388   -0.6123    1.4038 O   0  0  0  0  0  0  0  0  0  0  0  0
   -3.5876    1.2699   -0.1822 O   0  0  0  0  0  0  0  0  0  0  0  0
   -3.1089   -1.0541   -1.0566 O   0  0  0  0  0  0  0  0  0  0  0  0
   -0.6955   -2.0551   -0.0388 N   0  0  0  0  0  0  0  0  0  0  0  0
    1.1387   -0.4288   -0.0084 C   0  0  0  0  0  0  0  0  0  0  0  0
   -0.2367   -0.7122   -0.0299 C   0  0  0  0  0  0  0  0  0  0  0  0
    1.5671    0.9199   -0.0020 C   0  0  0  0  0  0  0  0  0  0  0  0
   -1.1762    0.3193   -0.0447 C   0  0  0  0  0  0  0  0  0  0  0  0
    0.6078    1.9456   -0.0176 C   0  0  0  0  0  0  0  0  0  0  0  0
   -0.7547    1.6457   -0.0388 C   0  0  0  0  0  0  0  0  0  0  0  0
    2.0981   -1.4542    0.0068 C   0  0  0  0  0  0  0  0  0  0  0  0
    2.9424    1.2035    0.0193 C   0  0  0  0  0  0  0  0  0  0  0  0
    3.4604   -1.1542    0.0282 C   0  0  0  0  0  0  0  0  0  0  0  0
    3.8819    0.1722    0.0345 C   0  0  0  0  0  0  0  0  0  0  0  0
    0.9150    2.9894   -0.0127 H   0  0  0  0  0  0  0  0  0  0  0  0
   -1.4576    2.4734   -0.0478 H   0  0  0  0  0  0  0  0  0  0  0  0
    1.8377   -2.5077    0.0032 H   0  0  0  0  0  0  0  0  0  0  0  0
    3.2945    2.2330    0.0244 H   0  0  0  0  0  0  0  0  0  0  0  0
    4.1930   -1.9562    0.0400 H   0  0  0  0  0  0  0  0  0  0  0  0
    4.9426    0.4052    0.0511 H   0  0  0  0  0  0  0  0  0  0  0  0
   -1.6856   -2.2566   -0.0266 H   0  0  0  0  0  0  0  0  0  0  0  0
   -0.0605   -2.8381   -0.0303 H   0  0  0  0  0  0  0  0  0  0  0  0
   -3.0630   -0.0060    2.1614 H   0  0  0  0  0  0  0  0  0  0  0  0
  1  2  1  0  0  0  0
  1  3  2  0  0  0  0
  1  4  2  0  0  0  0
  1  9  1  0  0  0  0
  2 24  1  0  0  0  0
  5  7  1  0  0  0  0
  5 22  1  0  0  0  0
  5 23  1  0  0  0  0
  6  7  1  0  0  0  0
  6  8  1  0  0  0  0
  6 12  2  0  0  0  0
  7  9  2  0  0  0  0
  8 10  1  0  0  0  0
  8 13  2  0  0  0  0
  9 11  1  0  0  0  0
 10 11  2  0  0  0  0
 10 16  1  0  0  0  0
 11 17  1  0  0  0  0
 12 14  1  0  0  0  0
 12 18  1  0  0  0  0
 13 15  1  0  0  0  0
 13 19  1  0  0  0  0
 14 15  2  0  0  0  0
 14 20  1  0  0  0  0
 15 21  1  0  0  0  0
M  END
> <PUBCHEM_COMPOUND_CID>
6667

> <PUBCHEM_CONFORMER_RMSD>
0.4

> <PUBCHEM_CONFORMER_DIVERSEORDER>
1
2

> <PUBCHEM_MMFF94_PARTIAL_CHARGES>
22
1 1.49
10 -0.15
11 -0.15
12 -0.15
13 -0.15
14 -0.15
15 -0.15
16 0.15
17 0.15
18 0.15
19 0.15
2 -0.68
20 0.15
21 0.15
22 0.4
23 0.4
24 0.5
3 -0.65
4 -0.65
5 -0.9
7 0.1
9 -0.01

> <PUBCHEM_EFFECTIVE_ROTOR_COUNT>
1

> <PUBCHEM_PHARMACOPHORE_FEATURES>
8
1 2 acceptor
1 3 acceptor
1 4 acceptor
1 5 cation
1 5 donor
4 1 2 3 4 anion
6 6 7 8 9 10 11 rings
6 6 8 12 13 14 15 rings

> <PUBCHEM_HEAVY_ATOM_COUNT>
15

> <PUBCHEM_ATOM_DEF_STEREO_COUNT>
0

> <PUBCHEM_ATOM_UDEF_STEREO_COUNT>
0

> <PUBCHEM_BOND_DEF_STEREO_COUNT>
0

> <PUBCHEM_BOND_UDEF_STEREO_COUNT>
0

> <PUBCHEM_ISOTOPIC_ATOM_COUNT>
0

> <PUBCHEM_COMPONENT_COUNT>
1

> <PUBCHEM_CACTVS_TAUTO_COUNT>
1

> <PUBCHEM_CONFORMER_ID>
00001A0B00000001

> <PUBCHEM_MMFF94_ENERGY>
49.3671

> <PUBCHEM_FEATURE_SELFOVERLAP>
40.678

> <PUBCHEM_SHAPE_FINGERPRINT>
10219947 1 18335137604898170766
10608611 8 18412267220305628356
10967382 1 18338518650429903222
10980938 120 18410012109319700930
11132069 177 18260838115362480970
11471102 20 18411143553818443244
11769659 78 18335990834537607358
12032990 46 18412819200991372186
13140716 1 18122343467630069288
13221675 6 18410573998389813390
13296908 3 18272649047650789579
13380535 76 18410296882894955750
14144814 61 18409449167650304690
14325111 11 18410576188475150165
14576447 43 18116729412582156855
14993402 34 18334861601577972127
15196674 1 18410576192996762908
15219456 202 18342735212950241281
15309172 13 18334008406456737171
15442244 35 18265053724684909354
15536298 74 18261114075875535564
16945 1 18339360747493223860
17844478 74 18060415815725824309
18186145 218 17418376908607762528
193761 8 17762338011698764836
200 152 18113909268393797541
20201158 50 18413671318218500306
20510252 161 18187929542506891112
20645477 70 18336552719265656887
21267235 1 18410004425354553422
21501502 16 18194401087226661190
2334 1 18338797935121154828
23402539 116 18335150812270785326
23402655 69 18335987548792998924
23463225 33 18411701010666876948
23493267 7 17560527295243463809
23559900 14 18335143129054483350
2748010 2 18267027339398468916
5104073 3 18410294717819580098
528886 8 18409737269740389136
53812653 166 18261679151880174616
7364860 26 18190745232808622512
8809292 202 18201995560105534555

> <PUBCHEM_SHAPE_MULTIPOLES>
289.95
6.26
1.91
0.76
0.65
0.11
-0.08
-0.54
-0.14
-0.19
0.06
0.48
-0.12
0.01

> <PUBCHEM_SHAPE_SELFOVERLAP>
622.933

> <PUBCHEM_SHAPE_VOLUME>
160.4

> <PUBCHEM_COORDINATE_TYPE>
2
5
10

$$$$

