13096
  -OEChem-06261207452D

 29 29  0     0  0  0  0  0  0999 V2000
    3.0000   -4.7500    0.0000 Cl  0  0  0  0  0  0  0  0  0  0  0  0
    2.0000   -3.7500    0.0000 Cl  0  0  0  0  0  0  0  0  0  0  0  0
    4.0000   -3.7500    0.0000 Cl  0  0  0  0  0  0  0  0  0  0  0  0
    4.7320   -0.7500    0.0000 O   0  0  0  0  0  0  0  0  0  0  0  0
    3.8660   -2.2500    0.0000 O   0  0  0  0  0  0  0  0  0  0  0  0
    6.4641    3.2500    0.0000 O   0  0  0  0  0  0  0  0  0  0  0  0
    3.0000   -0.7500    0.0000 O   0  0  0  0  0  0  0  0  0  0  0  0
    4.7320    3.2500    0.0000 N   0  0  0  0  0  0  0  0  0  0  0  0
    4.7320    2.2500    0.0000 C   0  0  0  0  0  0  0  0  0  0  0  0
    4.7320    0.2500    0.0000 C   0  0  0  0  0  0  0  0  0  0  0  0
    3.8660    1.7500    0.0000 C   0  0  0  0  0  0  0  0  0  0  0  0
    5.5981    1.7500    0.0000 C   0  0  0  0  0  0  0  0  0  0  0  0
    3.8660    0.7500    0.0000 C   0  0  0  0  0  0  0  0  0  0  0  0
    5.5981    0.7500    0.0000 C   0  0  0  0  0  0  0  0  0  0  0  0
    3.0000   -2.7500    0.0000 C   0  0  0  0  0  0  0  0  0  0  0  0
    5.5981    3.7500    0.0000 C   0  0  0  0  0  0  0  0  0  0  0  0
    3.0000   -3.7500    0.0000 C   0  0  0  0  0  0  0  0  0  0  0  0
    3.8660   -1.2500    0.0000 C   0  0  0  0  0  0  0  0  0  0  0  0
    5.5981    4.7500    0.0000 C   0  0  0  0  0  0  0  0  0  0  0  0
    3.3291    2.0600    0.0000 H   0  0  0  0  0  0  0  0  0  0  0  0
    6.1350    2.0600    0.0000 H   0  0  0  0  0  0  0  0  0  0  0  0
    3.3291    0.4400    0.0000 H   0  0  0  0  0  0  0  0  0  0  0  0
    6.1350    0.4400    0.0000 H   0  0  0  0  0  0  0  0  0  0  0  0
    4.1951    3.5600    0.0000 H   0  0  0  0  0  0  0  0  0  0  0  0
    2.7880   -2.1674    0.0000 H   0  0  0  0  0  0  0  0  0  0  0  0
    2.3894   -2.8577    0.0000 H   0  0  0  0  0  0  0  0  0  0  0  0
    6.2181    4.7500    0.0000 H   0  0  0  0  0  0  0  0  0  0  0  0
    5.5981    5.3700    0.0000 H   0  0  0  0  0  0  0  0  0  0  0  0
    4.9781    4.7500    0.0000 H   0  0  0  0  0  0  0  0  0  0  0  0
  1 17  1  0  0  0  0
  2 17  1  0  0  0  0
  3 17  1  0  0  0  0
  4 10  1  0  0  0  0
  4 18  1  0  0  0  0
  5 15  1  0  0  0  0
  5 18  1  0  0  0  0
  6 16  2  0  0  0  0
  7 18  2  0  0  0  0
  8  9  1  0  0  0  0
  8 16  1  0  0  0  0
  8 24  1  0  0  0  0
  9 11  2  0  0  0  0
  9 12  1  0  0  0  0
 10 13  2  0  0  0  0
 10 14  1  0  0  0  0
 11 13  1  0  0  0  0
 11 20  1  0  0  0  0
 12 14  2  0  0  0  0
 12 21  1  0  0  0  0
 13 22  1  0  0  0  0
 14 23  1  0  0  0  0
 15 17  1  0  0  0  0
 15 25  1  0  0  0  0
 15 26  1  0  0  0  0
 16 19  1  0  0  0  0
 19 27  1  0  0  0  0
 19 28  1  0  0  0  0
 19 29  1  0  0  0  0
M  END
> <PUBCHEM_COMPOUND_CID>
13096

> <PUBCHEM_COMPOUND_CANONICALIZED>
1

> <PUBCHEM_CACTVS_COMPLEXITY>
324

> <PUBCHEM_CACTVS_HBOND_ACCEPTOR>
4

> <PUBCHEM_CACTVS_HBOND_DONOR>
1

> <PUBCHEM_CACTVS_ROTATABLE_BOND>
5

> <PUBCHEM_CACTVS_SUBSKEYS>
AAADccByOAAGAAAAAAAAAAAAAAAAAAAAAAAwAAAAAAAAAAABAAAAHgIQAAAACA6hkIIyzoLABACIACVSWACCCAAhIgAIiAAGbYgcJiLEsZukMihk1BHM6AewQAAAAEAAAAAAAAAAgAAAAAAAAAAAAAAAAA==

> <PUBCHEM_IUPAC_OPENEYE_NAME>
(4-acetamidophenyl) 2,2,2-trichloroethyl carbonate

> <PUBCHEM_IUPAC_CAS_NAME>
carbonic acid (4-acetamidophenyl) 2,2,2-trichloroethyl ester

> <PUBCHEM_IUPAC_NAME>
(4-acetamidophenyl) 2,2,2-trichloroethyl carbonate

> <PUBCHEM_IUPAC_SYSTEMATIC_NAME>
(4-acetamidophenyl) 2,2,2-tris(chloranyl)ethyl carbonate

> <PUBCHEM_IUPAC_TRADITIONAL_NAME>
carbonic acid (4-acetamidophenyl) 2,2,2-trichloroethyl ester

> <PUBCHEM_IUPAC_INCHI>
InChI=1S/C11H10Cl3NO4/c1-7(16)15-8-2-4-9(5-3-8)19-10(17)18-6-11(12,13)14/h2-5H,6H2,1H3,(H,15,16)

> <PUBCHEM_IUPAC_INCHIKEY>
GZCRJHAVDRUHET-UHFFFAOYSA-N

> <PUBCHEM_XLOGP3>
3.1

> <PUBCHEM_EXACT_MASS>
324.967541

> <PUBCHEM_MOLECULAR_FORMULA>
C11H10Cl3NO4

> <PUBCHEM_MOLECULAR_WEIGHT>
326.5604

> <PUBCHEM_OPENEYE_CAN_SMILES>
CC(=O)NC1=CC=C(C=C1)OC(=O)OCC(Cl)(Cl)Cl

> <PUBCHEM_OPENEYE_ISO_SMILES>
CC(=O)NC1=CC=C(C=C1)OC(=O)OCC(Cl)(Cl)Cl

> <PUBCHEM_CACTVS_TPSA>
64.6

> <PUBCHEM_MONOISOTOPIC_WEIGHT>
324.967541

> <PUBCHEM_TOTAL_CHARGE>
0

> <PUBCHEM_HEAVY_ATOM_COUNT>
19

> <PUBCHEM_ATOM_DEF_STEREO_COUNT>
0

> <PUBCHEM_ATOM_UDEF_STEREO_COUNT>
0

> <PUBCHEM_BOND_DEF_STEREO_COUNT>
0

> <PUBCHEM_BOND_UDEF_STEREO_COUNT>
0

> <PUBCHEM_ISOTOPIC_ATOM_COUNT>
0

> <PUBCHEM_COMPONENT_COUNT>
1

> <PUBCHEM_CACTVS_TAUTO_COUNT>
3

> <PUBCHEM_COORDINATE_TYPE>
1
5
255

> <PUBCHEM_BONDANNOTATIONS>
10  13  8
10  14  8
11  13  8
12  14  8
9  11  8
9  12  8

$$$$

