13427
  -OEChem-06261214062D

 29 29  0     1  0  0  0  0  0999 V2000
    2.5673    0.0000    0.0000 Cl  0  5  0  0  0  0  0  0  0  0  0  0
    4.8150    7.0278    0.0000 N   0  3  0  0  0  0  0  0  0  0  0  0
    3.2152    3.3110    0.0000 N   0  0  0  0  0  0  0  0  0  0  0  0
    3.5259    5.8710    0.0000 C   0  0  0  0  0  0  0  0  0  0  0  0
    4.5044    6.0772    0.0000 C   0  0  3  0  0  0  0  0  0  0  0  0
    3.2152    4.9205    0.0000 C   0  0  0  0  0  0  0  0  0  0  0  0
    2.2690    4.6158    0.0000 C   0  0  0  0  0  0  0  0  0  0  0  0
    2.2690    3.6158    0.0000 C   0  0  0  0  0  0  0  0  0  0  0  0
    3.7988    4.1158    0.0000 C   0  0  0  0  0  0  0  0  0  0  0  0
    5.1722    5.3329    0.0000 C   0  0  0  0  0  0  0  0  0  0  0  0
    1.4030    5.1158    0.0000 C   0  0  0  0  0  0  0  0  0  0  0  0
    1.4030    3.1158    0.0000 C   0  0  0  0  0  0  0  0  0  0  0  0
    0.5369    4.6158    0.0000 C   0  0  0  0  0  0  0  0  0  0  0  0
    0.5369    3.6158    0.0000 C   0  0  0  0  0  0  0  0  0  0  0  0
    3.5053    6.4907    0.0000 H   0  0  0  0  0  0  0  0  0  0  0  0
    2.9120    5.9584    0.0000 H   0  0  0  0  0  0  0  0  0  0  0  0
    4.0903    6.5387    0.0000 H   0  0  0  0  0  0  0  0  0  0  0  0
    4.4188    4.1158    0.0000 H   0  0  0  0  0  0  0  0  0  0  0  0
    5.0076    7.6171    0.0000 H   0  0  0  0  0  0  0  0  0  0  0  0
    5.4044    6.8352    0.0000 H   0  0  0  0  0  0  0  0  0  0  0  0
    4.2257    7.2204    0.0000 H   0  0  0  0  0  0  0  0  0  0  0  0
    4.7108    4.9189    0.0000 H   0  0  0  0  0  0  0  0  0  0  0  0
    5.5863    4.8715    0.0000 H   0  0  0  0  0  0  0  0  0  0  0  0
    5.6337    5.7470    0.0000 H   0  0  0  0  0  0  0  0  0  0  0  0
    3.4078    2.7217    0.0000 H   0  0  0  0  0  0  0  0  0  0  0  0
    1.4030    5.7358    0.0000 H   0  0  0  0  0  0  0  0  0  0  0  0
    1.4030    2.4958    0.0000 H   0  0  0  0  0  0  0  0  0  0  0  0
    0.0000    4.9258    0.0000 H   0  0  0  0  0  0  0  0  0  0  0  0
    0.0000    3.3058    0.0000 H   0  0  0  0  0  0  0  0  0  0  0  0
  2  5  1  0  0  0  0
  2 19  1  0  0  0  0
  2 20  1  0  0  0  0
  2 21  1  0  0  0  0
  3  8  1  0  0  0  0
  3  9  1  0  0  0  0
  3 25  1  0  0  0  0
  4  5  1  0  0  0  0
  4  6  1  0  0  0  0
  4 15  1  0  0  0  0
  4 16  1  0  0  0  0
  5 10  1  0  0  0  0
  5 17  1  0  0  0  0
  6  7  1  0  0  0  0
  6  9  2  0  0  0  0
  7  8  1  0  0  0  0
  7 11  2  0  0  0  0
  8 12  2  0  0  0  0
  9 18  1  0  0  0  0
 10 22  1  0  0  0  0
 10 23  1  0  0  0  0
 10 24  1  0  0  0  0
 11 13  1  0  0  0  0
 11 26  1  0  0  0  0
 12 14  1  0  0  0  0
 12 27  1  0  0  0  0
 13 14  2  0  0  0  0
 13 28  1  0  0  0  0
 14 29  1  0  0  0  0
M  CHG  2   1  -1   2   1
M  END
> <PUBCHEM_COMPOUND_CID>
13427

> <PUBCHEM_COMPOUND_CANONICALIZED>
1

> <PUBCHEM_CACTVS_COMPLEXITY>
170

> <PUBCHEM_CACTVS_HBOND_ACCEPTOR>
1

> <PUBCHEM_CACTVS_HBOND_DONOR>
2

> <PUBCHEM_CACTVS_ROTATABLE_BOND>
2

> <PUBCHEM_CACTVS_SUBSKEYS>
AAADccBzAAAEAAAAAAAAAAAAAAAAAWAAAAAwAAAAAAAAAFgB8AAAHAAQAAAADCjBHgQ+wPLJkACgAzRnRACCgCAxAiAI2aA4ZJgIIOLAkZGEIAhgkADIyAcQgMAOgAAAAAACAAAAAAAAAAQAAAAAAAAAAA==

> <PUBCHEM_IUPAC_OPENEYE_NAME>
[2-(1H-indol-3-yl)-1-methyl-ethyl]ammonium chloride

> <PUBCHEM_IUPAC_CAS_NAME>
1-(1H-indol-3-yl)propan-2-ylammonium chloride

> <PUBCHEM_IUPAC_NAME>
1-(1H-indol-3-yl)propan-2-ylazanium chloride

> <PUBCHEM_IUPAC_SYSTEMATIC_NAME>
1-(1H-indol-3-yl)propan-2-ylazanium chloride

> <PUBCHEM_IUPAC_TRADITIONAL_NAME>
[2-(1H-indol-3-yl)-1-methyl-ethyl]ammonium chloride

> <PUBCHEM_IUPAC_INCHI>
InChI=1S/C11H14N2.ClH/c1-8(12)6-9-7-13-11-5-3-2-4-10(9)11;/h2-5,7-8,13H,6,12H2,1H3;1H

> <PUBCHEM_IUPAC_INCHIKEY>
SNEXLQZZENRCSB-UHFFFAOYSA-N

> <PUBCHEM_EXACT_MASS>
210.092376

> <PUBCHEM_MOLECULAR_FORMULA>
C11H15ClN2

> <PUBCHEM_MOLECULAR_WEIGHT>
210.7032

> <PUBCHEM_OPENEYE_CAN_SMILES>
CC(CC1=CNC2=CC=CC=C21)[NH3+].[Cl-]

> <PUBCHEM_OPENEYE_ISO_SMILES>
CC(CC1=CNC2=CC=CC=C21)[NH3+].[Cl-]

> <PUBCHEM_CACTVS_TPSA>
43.4

> <PUBCHEM_MONOISOTOPIC_WEIGHT>
210.092376

> <PUBCHEM_TOTAL_CHARGE>
0

> <PUBCHEM_HEAVY_ATOM_COUNT>
14

> <PUBCHEM_ATOM_DEF_STEREO_COUNT>
0

> <PUBCHEM_ATOM_UDEF_STEREO_COUNT>
1

> <PUBCHEM_BOND_DEF_STEREO_COUNT>
0

> <PUBCHEM_BOND_UDEF_STEREO_COUNT>
0

> <PUBCHEM_ISOTOPIC_ATOM_COUNT>
0

> <PUBCHEM_COMPONENT_COUNT>
2

> <PUBCHEM_CACTVS_TAUTO_COUNT>
1

> <PUBCHEM_COORDINATE_TYPE>
1
5
255

> <PUBCHEM_BONDANNOTATIONS>
11  13  8
12  14  8
13  14  8
5  2  3
3  8  8
3  9  8
6  7  8
6  9  8
7  11  8
7  8  8
8  12  8

$$$$

