6649
  -OEChem-06261201252D

 37 38  0     0  0  0  0  0  0999 V2000
    6.8671    2.8450    0.0000 S   0  0  0  0  0  0  0  0  0  0  0  0
    3.4030   -3.1550    0.0000 S   0  0  0  0  0  0  0  0  0  0  0  0
    6.8671   -1.1550    0.0000 O   0  0  0  0  0  0  0  0  0  0  0  0
    7.8671    2.8450    0.0000 O   0  0  0  0  0  0  0  0  0  0  0  0
    5.8671    2.8450    0.0000 O   0  0  0  0  0  0  0  0  0  0  0  0
    3.9030   -4.0210    0.0000 O   0  0  0  0  0  0  0  0  0  0  0  0
    2.9030   -2.2890    0.0000 O   0  0  0  0  0  0  0  0  0  0  0  0
    6.8671    3.8450    0.0000 N   0  0  0  0  0  0  0  0  0  0  0  0
    2.5369   -3.6550    0.0000 N   0  0  0  0  0  0  0  0  0  0  0  0
    2.5369   -4.6550    0.0000 N   0  0  0  0  0  0  0  0  0  0  0  0
    7.7331    4.3450    0.0000 N   0  0  0  0  0  0  0  0  0  0  0  0
    6.8671    1.8450    0.0000 C   0  0  0  0  0  0  0  0  0  0  0  0
    4.2690   -2.6550    0.0000 C   0  0  0  0  0  0  0  0  0  0  0  0
    6.8671   -0.1550    0.0000 C   0  0  0  0  0  0  0  0  0  0  0  0
    6.0010   -1.6550    0.0000 C   0  0  0  0  0  0  0  0  0  0  0  0
    6.0010    1.3450    0.0000 C   0  0  0  0  0  0  0  0  0  0  0  0
    5.1350   -3.1550    0.0000 C   0  0  0  0  0  0  0  0  0  0  0  0
    7.7331    1.3450    0.0000 C   0  0  0  0  0  0  0  0  0  0  0  0
    4.2690   -1.6550    0.0000 C   0  0  0  0  0  0  0  0  0  0  0  0
    6.0010    0.3450    0.0000 C   0  0  0  0  0  0  0  0  0  0  0  0
    6.0010   -2.6550    0.0000 C   0  0  0  0  0  0  0  0  0  0  0  0
    7.7331    0.3450    0.0000 C   0  0  0  0  0  0  0  0  0  0  0  0
    5.1350   -1.1550    0.0000 C   0  0  0  0  0  0  0  0  0  0  0  0
    5.4641    1.6550    0.0000 H   0  0  0  0  0  0  0  0  0  0  0  0
    5.1350   -3.7750    0.0000 H   0  0  0  0  0  0  0  0  0  0  0  0
    8.2700    1.6550    0.0000 H   0  0  0  0  0  0  0  0  0  0  0  0
    3.7320   -1.3450    0.0000 H   0  0  0  0  0  0  0  0  0  0  0  0
    5.4641    0.0350    0.0000 H   0  0  0  0  0  0  0  0  0  0  0  0
    6.5380   -2.9650    0.0000 H   0  0  0  0  0  0  0  0  0  0  0  0
    8.2700    0.0350    0.0000 H   0  0  0  0  0  0  0  0  0  0  0  0
    5.1350   -0.5350    0.0000 H   0  0  0  0  0  0  0  0  0  0  0  0
    6.3301    4.1550    0.0000 H   0  0  0  0  0  0  0  0  0  0  0  0
    2.0000   -3.3450    0.0000 H   0  0  0  0  0  0  0  0  0  0  0  0
    2.0000   -4.9650    0.0000 H   0  0  0  0  0  0  0  0  0  0  0  0
    3.0739   -4.9650    0.0000 H   0  0  0  0  0  0  0  0  0  0  0  0
    7.7331    4.9650    0.0000 H   0  0  0  0  0  0  0  0  0  0  0  0
    8.2700    4.0350    0.0000 H   0  0  0  0  0  0  0  0  0  0  0  0
  1  4  2  0  0  0  0
  1  5  2  0  0  0  0
  1  8  1  0  0  0  0
  1 12  1  0  0  0  0
  2  6  2  0  0  0  0
  2  7  2  0  0  0  0
  2  9  1  0  0  0  0
  2 13  1  0  0  0  0
  3 14  1  0  0  0  0
  3 15  1  0  0  0  0
  8 11  1  0  0  0  0
  8 32  1  0  0  0  0
  9 10  1  0  0  0  0
  9 33  1  0  0  0  0
 10 34  1  0  0  0  0
 10 35  1  0  0  0  0
 11 36  1  0  0  0  0
 11 37  1  0  0  0  0
 12 16  2  0  0  0  0
 12 18  1  0  0  0  0
 13 17  2  0  0  0  0
 13 19  1  0  0  0  0
 14 20  2  0  0  0  0
 14 22  1  0  0  0  0
 15 21  2  0  0  0  0
 15 23  1  0  0  0  0
 16 20  1  0  0  0  0
 16 24  1  0  0  0  0
 17 21  1  0  0  0  0
 17 25  1  0  0  0  0
 18 22  2  0  0  0  0
 18 26  1  0  0  0  0
 19 23  2  0  0  0  0
 19 27  1  0  0  0  0
 20 28  1  0  0  0  0
 21 29  1  0  0  0  0
 22 30  1  0  0  0  0
 23 31  1  0  0  0  0
M  END
> <PUBCHEM_COMPOUND_CID>
6649

> <PUBCHEM_COMPOUND_CANONICALIZED>
1

> <PUBCHEM_CACTVS_COMPLEXITY>
516

> <PUBCHEM_CACTVS_HBOND_ACCEPTOR>
9

> <PUBCHEM_CACTVS_HBOND_DONOR>
4

> <PUBCHEM_CACTVS_ROTATABLE_BOND>
6

> <PUBCHEM_CACTVS_SUBSKEYS>
AAADccBzuABgAAAAAAAAAAAAAAAAAAAAAAAwYAAAAAAAAAABQAAAGgQYQAAACASA0AAwB4ACBAKAACBCAHBCCBAgIAIIiBgGCIgMJiKEMRqCOCCkwBEIqAeAQAAAAIAAAAAAAAABAAAAAAAAAAAAAAAAAA==

> <PUBCHEM_IUPAC_OPENEYE_NAME>
4-[4-(hydrazinesulfonyl)phenoxy]benzenesulfonohydrazide

> <PUBCHEM_IUPAC_CAS_NAME>
4-[4-(hydrazinesulfonyl)phenoxy]benzenesulfonohydrazide

> <PUBCHEM_IUPAC_NAME>
4-[4-(hydrazinesulfonyl)phenoxy]benzenesulfonohydrazide

> <PUBCHEM_IUPAC_SYSTEMATIC_NAME>
4-[4-(aminosulfamoyl)phenoxy]benzenesulfonohydrazide

> <PUBCHEM_IUPAC_TRADITIONAL_NAME>
4-[4-(hydrazinesulfonyl)phenoxy]benzenesulfonohydrazide

> <PUBCHEM_IUPAC_INCHI>
InChI=1S/C12H14N4O5S2/c13-15-22(17,18)11-5-1-9(2-6-11)21-10-3-7-12(8-4-10)23(19,20)16-14/h1-8,15-16H,13-14H2

> <PUBCHEM_IUPAC_INCHIKEY>
NBOCQTNZUPTTEI-UHFFFAOYSA-N

> <PUBCHEM_XLOGP3_AA>
-0.1

> <PUBCHEM_EXACT_MASS>
358.040562

> <PUBCHEM_MOLECULAR_FORMULA>
C12H14N4O5S2

> <PUBCHEM_MOLECULAR_WEIGHT>
358.39336

> <PUBCHEM_OPENEYE_CAN_SMILES>
C1=CC(=CC=C1OC2=CC=C(C=C2)S(=O)(=O)NN)S(=O)(=O)NN

> <PUBCHEM_OPENEYE_ISO_SMILES>
C1=CC(=CC=C1OC2=CC=C(C=C2)S(=O)(=O)NN)S(=O)(=O)NN

> <PUBCHEM_CACTVS_TPSA>
170

> <PUBCHEM_MONOISOTOPIC_WEIGHT>
358.040562

> <PUBCHEM_TOTAL_CHARGE>
0

> <PUBCHEM_HEAVY_ATOM_COUNT>
23

> <PUBCHEM_ATOM_DEF_STEREO_COUNT>
0

> <PUBCHEM_ATOM_UDEF_STEREO_COUNT>
0

> <PUBCHEM_BOND_DEF_STEREO_COUNT>
0

> <PUBCHEM_BOND_UDEF_STEREO_COUNT>
0

> <PUBCHEM_ISOTOPIC_ATOM_COUNT>
0

> <PUBCHEM_COMPONENT_COUNT>
1

> <PUBCHEM_CACTVS_TAUTO_COUNT>
1

> <PUBCHEM_COORDINATE_TYPE>
1
5
255

> <PUBCHEM_BONDANNOTATIONS>
12  16  8
12  18  8
13  17  8
13  19  8
14  20  8
14  22  8
15  21  8
15  23  8
16  20  8
17  21  8
18  22  8
19  23  8

$$$$

