4916
  -OEChem-06261200253D

 43 44  0     1  0  0  0  0  0999 V2000
   -1.8192   -0.0182   -2.4893 O   0  0  0  0  0  0  0  0  0  0  0  0
    3.2463   -2.7317    0.0461 O   0  0  0  0  0  0  0  0  0  0  0  0
    4.5209    1.8915    1.2616 O   0  0  0  0  0  0  0  0  0  0  0  0
   -2.6557   -0.7073    0.2871 N   0  0  0  0  0  0  0  0  0  0  0  0
    3.3930    0.0269    0.5176 N   0  0  0  0  0  0  0  0  0  0  0  0
   -2.2345    0.6279   -0.1575 C   0  0  1  0  0  0  0  0  0  0  0  0
   -1.1911    0.5009   -1.3081 C   0  0  1  0  0  0  0  0  0  0  0  0
   -3.4763    1.4526   -0.5519 C   0  0  0  0  0  0  0  0  0  0  0  0
    0.0068   -0.3112   -0.9320 C   0  0  0  0  0  0  0  0  0  0  0  0
   -3.5309   -0.6065    1.4416 C   0  0  0  0  0  0  0  0  0  0  0  0
    1.1517    0.2640   -0.3734 C   0  0  0  0  0  0  0  0  0  0  0  0
   -3.1437    2.8886   -0.9432 C   0  0  0  0  0  0  0  0  0  0  0  0
   -0.0435   -1.6886   -1.1569 C   0  0  0  0  0  0  0  0  0  0  0  0
    2.2405   -0.5517   -0.0443 C   0  0  0  0  0  0  0  0  0  0  0  0
   -2.8055    0.0769    2.5973 C   0  0  0  0  0  0  0  0  0  0  0  0
   -4.0074   -1.9995    1.8408 C   0  0  0  0  0  0  0  0  0  0  0  0
    2.1921   -1.9289   -0.2685 C   0  0  0  0  0  0  0  0  0  0  0  0
    1.2433    1.7003   -0.1229 C   0  0  0  0  0  0  0  0  0  0  0  0
    1.0461   -2.4951   -0.8257 C   0  0  0  0  0  0  0  0  0  0  0  0
    2.3493    2.2298    0.4122 C   0  0  0  0  0  0  0  0  0  0  0  0
    3.5177    1.3794    0.7694 C   0  0  0  0  0  0  0  0  0  0  0  0
   -1.7033    1.1472    0.6474 H   0  0  0  0  0  0  0  0  0  0  0  0
   -0.8655    1.4949   -1.6229 H   0  0  0  0  0  0  0  0  0  0  0  0
   -4.1717    1.5678    0.2830 H   0  0  0  0  0  0  0  0  0  0  0  0
   -4.0349    0.9707   -1.3630 H   0  0  0  0  0  0  0  0  0  0  0  0
   -3.1369   -1.1852   -0.4746 H   0  0  0  0  0  0  0  0  0  0  0  0
   -4.4593   -0.0707    1.2289 H   0  0  0  0  0  0  0  0  0  0  0  0
   -2.5852    2.9325   -1.8823 H   0  0  0  0  0  0  0  0  0  0  0  0
   -4.0658    3.4617   -1.0859 H   0  0  0  0  0  0  0  0  0  0  0  0
   -2.5556    3.3834   -0.1637 H   0  0  0  0  0  0  0  0  0  0  0  0
   -0.9209   -2.1648   -1.5870 H   0  0  0  0  0  0  0  0  0  0  0  0
   -3.3597   -0.0682    3.5323 H   0  0  0  0  0  0  0  0  0  0  0  0
   -1.8029   -0.3382    2.7526 H   0  0  0  0  0  0  0  0  0  0  0  0
   -2.7220    1.1598    2.4622 H   0  0  0  0  0  0  0  0  0  0  0  0
   -4.5501   -2.4822    1.0201 H   0  0  0  0  0  0  0  0  0  0  0  0
   -4.6854   -1.9487    2.7000 H   0  0  0  0  0  0  0  0  0  0  0  0
   -3.1667   -2.6464    2.1168 H   0  0  0  0  0  0  0  0  0  0  0  0
   -2.4097    0.6685   -2.8416 H   0  0  0  0  0  0  0  0  0  0  0  0
    0.4180    2.3659   -0.3373 H   0  0  0  0  0  0  0  0  0  0  0  0
    0.9877   -3.5649   -1.0078 H   0  0  0  0  0  0  0  0  0  0  0  0
    4.1692   -0.5870    0.7479 H   0  0  0  0  0  0  0  0  0  0  0  0
    2.4229    3.2932    0.6110 H   0  0  0  0  0  0  0  0  0  0  0  0
    3.0247   -3.6509   -0.1818 H   0  0  0  0  0  0  0  0  0  0  0  0
  1  7  1  0  0  0  0
  1 38  1  0  0  0  0
  2 17  1  0  0  0  0
  2 43  1  0  0  0  0
  3 21  2  0  0  0  0
  4  6  1  0  0  0  0
  4 10  1  0  0  0  0
  4 26  1  0  0  0  0
  5 14  1  0  0  0  0
  5 21  1  0  0  0  0
  5 41  1  0  0  0  0
  6  7  1  0  0  0  0
  6  8  1  0  0  0  0
  6 22  1  0  0  0  0
  7  9  1  0  0  0  0
  7 23  1  0  0  0  0
  8 12  1  0  0  0  0
  8 24  1  0  0  0  0
  8 25  1  0  0  0  0
  9 11  2  0  0  0  0
  9 13  1  0  0  0  0
 10 15  1  0  0  0  0
 10 16  1  0  0  0  0
 10 27  1  0  0  0  0
 11 14  1  0  0  0  0
 11 18  1  0  0  0  0
 12 28  1  0  0  0  0
 12 29  1  0  0  0  0
 12 30  1  0  0  0  0
 13 19  2  0  0  0  0
 13 31  1  0  0  0  0
 14 17  2  0  0  0  0
 15 32  1  0  0  0  0
 15 33  1  0  0  0  0
 15 34  1  0  0  0  0
 16 35  1  0  0  0  0
 16 36  1  0  0  0  0
 16 37  1  0  0  0  0
 17 19  1  0  0  0  0
 18 20  2  0  0  0  0
 18 39  1  0  0  0  0
 19 40  1  0  0  0  0
 20 21  1  0  0  0  0
 20 42  1  0  0  0  0
M  END
> <PUBCHEM_COMPOUND_CID>
4916

> <PUBCHEM_CONFORMER_RMSD>
0.8

> <PUBCHEM_CONFORMER_DIVERSEORDER>
1
15
5
7
13
6
10
16
9
11
8
2
17
4
12
3
14

> <PUBCHEM_MMFF94_PARTIAL_CHARGES>
25
1 -0.68
10 0.27
11 0.03
13 -0.15
14 0.12
17 0.08
18 -0.18
19 -0.15
2 -0.53
20 -0.14
21 0.62
26 0.36
3 -0.57
31 0.15
38 0.4
39 0.15
4 -0.9
40 0.15
41 0.37
42 0.15
43 0.45
5 -0.55
6 0.27
7 0.42
9 -0.14

> <PUBCHEM_EFFECTIVE_ROTOR_COUNT>
5

> <PUBCHEM_PHARMACOPHORE_FEATURES>
11
1 1 acceptor
1 1 donor
1 12 hydrophobe
1 2 donor
1 3 acceptor
1 4 cation
1 4 donor
1 5 donor
3 10 15 16 hydrophobe
6 5 11 14 18 20 21 rings
6 9 11 13 14 17 19 rings

> <PUBCHEM_HEAVY_ATOM_COUNT>
21

> <PUBCHEM_ATOM_DEF_STEREO_COUNT>
0

> <PUBCHEM_ATOM_UDEF_STEREO_COUNT>
2

> <PUBCHEM_BOND_DEF_STEREO_COUNT>
0

> <PUBCHEM_BOND_UDEF_STEREO_COUNT>
0

> <PUBCHEM_ISOTOPIC_ATOM_COUNT>
0

> <PUBCHEM_COMPONENT_COUNT>
1

> <PUBCHEM_CACTVS_TAUTO_COUNT>
6

> <PUBCHEM_CONFORMER_ID>
0000133400000001

> <PUBCHEM_MMFF94_ENERGY>
50.9146

> <PUBCHEM_FEATURE_SELFOVERLAP>
55.849

> <PUBCHEM_SHAPE_FINGERPRINT>
10366900 7 18200018548072902385
11471102 22 18411976966288748366
11582403 64 16547002883965396989
11640471 11 17022902397486955025
12293681 4 17980195619072399529
12507560 18 17624415676953721665
12633257 1 18118938503668045891
12892183 10 18059586741330737424
13083527 12 17700404789802348543
13140716 1 18265336281687436444
13583140 156 18408603686263628419
14178342 30 17561083643979538969
14223421 5 18413101758399990267
14251764 38 17173745626558863521
14289901 80 18059841862029104883
14341114 328 17386547078219456443
14787075 74 17389382602674560939
14790565 3 18409451367539619908
15295992 7 18122616421623987353
15534591 1 16951401031678409774
16945 1 18341328873174964078
17357990 137 16805593811023778607
18186145 218 17894343359284982468
18219364 16 18337119968507701884
19049666 15 18198901603252122853
20510252 161 17323540492017772226
20681677 76 18411421739055900887
21524375 3 17824547370286349884
21731516 1 14620784999162459517
21756936 100 16951117370753204432
21864079 5 16878209948579389705
23559900 14 18059285586418114151
2748010 2 18048055231156530396
3797600 57 17242149285416320067
392239 28 17317589990881236915
469060 322 18047487625221156931
49207404 50 18412824672594980520
6049 1 18267849731077579741
81228 2 17489293210272553733
9709674 26 18342460378462592053

> <PUBCHEM_SHAPE_MULTIPOLES>
404.6
7.46
2.97
1.85
0.11
0.09
0.38
-1.23
3.98
-0.74
-0.19
1.83
0.15
2.49

> <PUBCHEM_SHAPE_SELFOVERLAP>
847.265

> <PUBCHEM_SHAPE_VOLUME>
229.1

> <PUBCHEM_COORDINATE_TYPE>
2
5
10

$$$$

