11581
  -OEChem-06261205513D

 38 37  0     0  0  0  0  0  0999 V2000
   -7.8158    1.3455    0.5075 F   0  0  0  0  0  0  0  0  0  0  0  0
    6.9818    1.6912    0.4783 F   0  0  0  0  0  0  0  0  0  0  0  0
    4.7302    0.2451   -0.2015 O   0  0  0  0  0  0  0  0  0  0  0  0
    3.7055   -1.7198    0.4387 O   0  0  0  0  0  0  0  0  0  0  0  0
   -2.7169    0.2091   -0.2828 C   0  0  0  0  0  0  0  0  0  0  0  0
   -1.4441   -0.5656    0.0660 C   0  0  0  0  0  0  0  0  0  0  0  0
   -3.9703   -0.5969    0.0702 C   0  0  0  0  0  0  0  0  0  0  0  0
   -0.1565    0.2038   -0.2454 C   0  0  0  0  0  0  0  0  0  0  0  0
   -5.2430    0.1933   -0.2428 C   0  0  0  0  0  0  0  0  0  0  0  0
    1.1166   -0.5844    0.0816 C   0  0  0  0  0  0  0  0  0  0  0  0
   -6.5284   -0.5727    0.0816 C   0  0  0  0  0  0  0  0  0  0  0  0
    2.3858    0.2294   -0.1750 C   0  0  0  0  0  0  0  0  0  0  0  0
   -7.7977    0.2031   -0.2286 C   0  0  0  0  0  0  0  0  0  0  0  0
    3.6564   -0.5529    0.0743 C   0  0  0  0  0  0  0  0  0  0  0  0
    6.0126   -0.3696   -0.0398 C   0  0  0  0  0  0  0  0  0  0  0  0
    7.0840    0.6413   -0.3822 C   0  0  0  0  0  0  0  0  0  0  0  0
   -2.7247    1.1607    0.2621 H   0  0  0  0  0  0  0  0  0  0  0  0
   -2.7196    0.4482   -1.3530 H   0  0  0  0  0  0  0  0  0  0  0  0
   -1.4365   -1.5136   -0.4863 H   0  0  0  0  0  0  0  0  0  0  0  0
   -1.4565   -0.8213    1.1329 H   0  0  0  0  0  0  0  0  0  0  0  0
   -3.9743   -1.5379   -0.4927 H   0  0  0  0  0  0  0  0  0  0  0  0
   -3.9557   -0.8563    1.1357 H   0  0  0  0  0  0  0  0  0  0  0  0
   -0.1560    1.1421    0.3230 H   0  0  0  0  0  0  0  0  0  0  0  0
   -0.1474    0.4767   -1.3079 H   0  0  0  0  0  0  0  0  0  0  0  0
   -5.2325    1.1335    0.3224 H   0  0  0  0  0  0  0  0  0  0  0  0
   -5.2482    0.4639   -1.3061 H   0  0  0  0  0  0  0  0  0  0  0  0
    1.1387   -1.5024   -0.5189 H   0  0  0  0  0  0  0  0  0  0  0  0
    1.0941   -0.8997    1.1323 H   0  0  0  0  0  0  0  0  0  0  0  0
   -6.5243   -0.8229    1.1492 H   0  0  0  0  0  0  0  0  0  0  0  0
   -6.5418   -1.5170   -0.4747 H   0  0  0  0  0  0  0  0  0  0  0  0
    2.3975    0.5641   -1.2187 H   0  0  0  0  0  0  0  0  0  0  0  0
    2.3942    1.1090    0.4786 H   0  0  0  0  0  0  0  0  0  0  0  0
   -7.8508    0.4792   -1.2857 H   0  0  0  0  0  0  0  0  0  0  0  0
   -8.6859   -0.3798    0.0307 H   0  0  0  0  0  0  0  0  0  0  0  0
    6.1244   -0.6844    1.0035 H   0  0  0  0  0  0  0  0  0  0  0  0
    6.0909   -1.2383   -0.7023 H   0  0  0  0  0  0  0  0  0  0  0  0
    6.9511    1.0367   -1.3931 H   0  0  0  0  0  0  0  0  0  0  0  0
    8.0852    0.2143   -0.2832 H   0  0  0  0  0  0  0  0  0  0  0  0
  1 13  1  0  0  0  0
  2 16  1  0  0  0  0
  3 14  1  0  0  0  0
  3 15  1  0  0  0  0
  4 14  2  0  0  0  0
  5  6  1  0  0  0  0
  5  7  1  0  0  0  0
  5 17  1  0  0  0  0
  5 18  1  0  0  0  0
  6  8  1  0  0  0  0
  6 19  1  0  0  0  0
  6 20  1  0  0  0  0
  7  9  1  0  0  0  0
  7 21  1  0  0  0  0
  7 22  1  0  0  0  0
  8 10  1  0  0  0  0
  8 23  1  0  0  0  0
  8 24  1  0  0  0  0
  9 11  1  0  0  0  0
  9 25  1  0  0  0  0
  9 26  1  0  0  0  0
 10 12  1  0  0  0  0
 10 27  1  0  0  0  0
 10 28  1  0  0  0  0
 11 13  1  0  0  0  0
 11 29  1  0  0  0  0
 11 30  1  0  0  0  0
 12 14  1  0  0  0  0
 12 31  1  0  0  0  0
 12 32  1  0  0  0  0
 13 33  1  0  0  0  0
 13 34  1  0  0  0  0
 15 16  1  0  0  0  0
 15 35  1  0  0  0  0
 15 36  1  0  0  0  0
 16 37  1  0  0  0  0
 16 38  1  0  0  0  0
M  END
> <PUBCHEM_COMPOUND_CID>
11581

> <PUBCHEM_CONFORMER_RMSD>
1

> <PUBCHEM_CONFORMER_DIVERSEORDER>
1
332
217
362
91
7
27
215
179
250
114
112
151
66
170
351
347
59
132
64
255
258
126
74
355
237
93
104
326
14
297
366
96
352
367
135
185
311
63
363
5
30
13
216
315
84
70
138
307
45
41
209
53
264
186
18
43
299
321
6
75
235
214
336
207
361
16
168
368
119
313
273
289
80
68
87
95
244
71
52
50
210
318
229
48
123
19
82
8
224
252
54
187
329
106
166
184
176
34
305
130
219
113
12
358
198
152
137
86
88
241
334
220
339
44
134
191
99
9
47
121
364
139
83
155
60
37
98
35
226
309
284
55
327
153
359
78
167
42
188
272
173
22
280
26
213
275
97
116
147
279
38
140
65
10
143
77
316
193
171
265
162
62
282
234
338
142
115
159
304
341
292
148
322
17
109
3
314
172
181
360
195
32
39
107
46
251
177
105
161
344
149
340
283
259
247
15
85
293
51
328
163
23
345
117
199
128
122
111
101
233
102
178
205
228
67
356
81
312
204
337
324
124
301
206
24
192
269
202
253
2
189
4
58
333
57
222
317
232
310
320
274
223
160
110
218
20
246
227
354
169
330
238
236
175
221
325
94
154
125
242
212
256
335
268
174
194
261
196
36
287
343
231
239
208
92
306
33
118
190
277
278
145
127
197
158
298
243
29
131
89
296
262
365
79
150
249
225
40
165
285
133
100
136
183
357
182
146
346
302
56
230
141
90
248
120
291
73
342
240
266
201
263
69
331
144
61
129
276
108
211
290
267
31
288
164
103
28
76
294
271
323
270
281
11
295
200
308
260
72
257
353
156
157
49
245
303
348
25
254
300
349
180
286
21
350
319
203

> <PUBCHEM_MMFF94_PARTIAL_CHARGES>
9
1 -0.34
12 0.06
13 0.34
14 0.66
15 0.28
16 0.34
2 -0.34
3 -0.43
4 -0.57

> <PUBCHEM_EFFECTIVE_ROTOR_COUNT>
12

> <PUBCHEM_PHARMACOPHORE_FEATURES>
1
1 4 acceptor

> <PUBCHEM_HEAVY_ATOM_COUNT>
16

> <PUBCHEM_ATOM_DEF_STEREO_COUNT>
0

> <PUBCHEM_ATOM_UDEF_STEREO_COUNT>
0

> <PUBCHEM_BOND_DEF_STEREO_COUNT>
0

> <PUBCHEM_BOND_UDEF_STEREO_COUNT>
0

> <PUBCHEM_ISOTOPIC_ATOM_COUNT>
0

> <PUBCHEM_COMPONENT_COUNT>
1

> <PUBCHEM_CACTVS_TAUTO_COUNT>
1

> <PUBCHEM_CONFORMER_ID>
00002D3D00000001

> <PUBCHEM_MMFF94_ENERGY>
2.9217

> <PUBCHEM_FEATURE_SELFOVERLAP>
5.074

> <PUBCHEM_SHAPE_FINGERPRINT>
10968037 39 18413108355976276111
11315181 36 18334012792804879913
11638347 137 16343710945907634752
12091667 2 18113056035451118471
13073987 5 16558481892732995013
13533116 47 18187931736913679050
14123256 10 18410573989456987444
14251764 18 18342176669991942189
14251764 46 16226047795297521310
14729087 3 18060423538863123277
15048467 5 18410293605391400974
17093844 174 17775846818723606753
17834076 25 15430035456925988079
20281389 69 18202004343355995612
20735858 18 14405187265677043648
21130983 4 18410573980856496845
21150785 3 17385442111513202261
220451 1 17095529504320513599
22224240 67 17846781793033709451
23035841 295 11312054353469324729
23521765 1 18335420166691563407
33684 2 18408604768701031494
42788 4 18273215304797704479
4463277 17 18409449189067196789
67123 10 18408041793589723175
8209 1 18186519903800571350

> <PUBCHEM_SHAPE_MULTIPOLES>
302.99
25
1.11
0.65
11.46
0.03
0.01
7.18
-0.87
-0.86
-0.16
0.02
0.03
-0.14

> <PUBCHEM_SHAPE_SELFOVERLAP>
557.507

> <PUBCHEM_SHAPE_VOLUME>
190.9

> <PUBCHEM_COORDINATE_TYPE>
2
5
10

$$$$

