11190
  -OEChem-06261205222D

 10  9  0     0  0  0  0  0  0999 V2000
    2.5369    0.5600    0.0000 O   0  0  0  0  0  0  0  0  0  0  0  0
    6.8671    0.0600    0.0000 O   0  0  0  0  0  0  0  0  0  0  0  0
    3.4030    0.0600    0.0000 N   0  0  0  0  0  0  0  0  0  0  0  0
    6.0010    0.5600    0.0000 N   0  0  0  0  0  0  0  0  0  0  0  0
    4.2690    0.5600    0.0000 C   0  0  0  0  0  0  0  0  0  0  0  0
    5.1350    0.0600    0.0000 C   0  0  0  0  0  0  0  0  0  0  0  0
    4.2690    1.1800    0.0000 H   0  0  0  0  0  0  0  0  0  0  0  0
    3.4030   -0.5600    0.0000 H   0  0  0  0  0  0  0  0  0  0  0  0
    5.1350   -0.5600    0.0000 H   0  0  0  0  0  0  0  0  0  0  0  0
    2.0000    0.2500    0.0000 H   0  0  0  0  0  0  0  0  0  0  0  0
  1  3  1  0  0  0  0
  1 10  1  0  0  0  0
  2  4  2  0  0  0  0
  3  5  1  0  0  0  0
  3  8  1  0  0  0  0
  4  6  1  0  0  0  0
  5  6  2  3  0  0  0
  5  7  1  0  0  0  0
  6  9  1  0  0  0  0
M  END
> <PUBCHEM_COMPOUND_CID>
11190

> <PUBCHEM_COMPOUND_CANONICALIZED>
1

> <PUBCHEM_CACTVS_COMPLEXITY>
60.6

> <PUBCHEM_CACTVS_HBOND_ACCEPTOR>
4

> <PUBCHEM_CACTVS_HBOND_DONOR>
2

> <PUBCHEM_CACTVS_ROTATABLE_BOND>
1

> <PUBCHEM_CACTVS_SUBSKEYS>
AAADcYBDMAAAAAAAAAAAAAAAAAAAAAAAAAAAAAAAAAAAAAAAAAAAHAAUCAAAAADBAAQAAABQAACBAAAGQgAAAAAAAgAIAIAAAAAAAAAAAAAAAAAAAAAAAAAAAAAAAAAAAAAAAAAAAAAAAAAAAAAAAAAAAA==

> <PUBCHEM_IUPAC_OPENEYE_NAME>
N-(2-nitrosovinyl)hydroxylamine

> <PUBCHEM_IUPAC_CAS_NAME>
N-(2-nitrosoethenyl)hydroxylamine

> <PUBCHEM_IUPAC_NAME>
N-(2-nitrosoethenyl)hydroxylamine

> <PUBCHEM_IUPAC_SYSTEMATIC_NAME>
N-(2-nitrosoethenyl)hydroxylamine

> <PUBCHEM_IUPAC_TRADITIONAL_NAME>
N-(2-nitrosovinyl)hydroxylamine

> <PUBCHEM_IUPAC_INCHI>
InChI=1S/C2H4N2O2/c5-3-1-2-4-6/h1-3,5H

> <PUBCHEM_IUPAC_INCHIKEY>
RUFIRPVAEJIIIS-UHFFFAOYSA-N

> <PUBCHEM_XLOGP3_AA>
-0.1

> <PUBCHEM_EXACT_MASS>
88.027277

> <PUBCHEM_MOLECULAR_FORMULA>
C2H4N2O2

> <PUBCHEM_MOLECULAR_WEIGHT>
88.06536

> <PUBCHEM_OPENEYE_CAN_SMILES>
C(=CN=O)NO

> <PUBCHEM_OPENEYE_ISO_SMILES>
C(=CN=O)NO

> <PUBCHEM_CACTVS_TPSA>
61.7

> <PUBCHEM_MONOISOTOPIC_WEIGHT>
88.027277

> <PUBCHEM_TOTAL_CHARGE>
0

> <PUBCHEM_HEAVY_ATOM_COUNT>
6

> <PUBCHEM_ATOM_DEF_STEREO_COUNT>
0

> <PUBCHEM_ATOM_UDEF_STEREO_COUNT>
0

> <PUBCHEM_BOND_DEF_STEREO_COUNT>
0

> <PUBCHEM_BOND_UDEF_STEREO_COUNT>
1

> <PUBCHEM_ISOTOPIC_ATOM_COUNT>
0

> <PUBCHEM_COMPONENT_COUNT>
1

> <PUBCHEM_CACTVS_TAUTO_COUNT>
5

> <PUBCHEM_COORDINATE_TYPE>
1
5
255

> <PUBCHEM_BONDANNOTATIONS>
5  6  1

$$$$

