17396082
  -OEChem-06241222542D

 63 66  0     1  0  0  0  0  0999 V2000
    3.0000   -1.1418    0.0000 S   0  0  0  0  0  0  0  0  0  0  0  0
    4.0000   -1.1418    0.0000 O   0  0  0  0  0  0  0  0  0  0  0  0
    2.0000   -1.1418    0.0000 O   0  0  0  0  0  0  0  0  0  0  0  0
    4.9680   -0.8412    0.0000 O   0  0  0  0  0  0  0  0  0  0  0  0
    3.0000   -0.1418    0.0000 N   0  0  3  0  0  0  0  0  0  0  0  0
    5.5032    0.8061    0.0000 N   0  0  0  0  0  0  0  0  0  0  0  0
    8.0064    2.5675    0.0000 N   0  0  0  0  0  0  0  0  0  0  0  0
    8.6756    1.8243    0.0000 N   0  0  0  0  0  0  0  0  0  0  0  0
    3.8090    0.4460    0.0000 C   0  0  1  0  0  0  0  0  0  0  0  0
    3.5000    1.3970    0.0000 C   0  0  0  0  0  0  0  0  0  0  0  0
    2.5000    1.3970    0.0000 C   0  0  0  0  0  0  0  0  0  0  0  0
    2.1910    0.4460    0.0000 C   0  0  0  0  0  0  0  0  0  0  0  0
    4.7601    0.1370    0.0000 C   0  0  0  0  0  0  0  0  0  0  0  0
    3.0000   -2.1418    0.0000 C   0  0  0  0  0  0  0  0  0  0  0  0
    6.4543    0.4971    0.0000 C   0  0  0  0  0  0  0  0  0  0  0  0
    7.1974    1.1662    0.0000 C   0  0  0  0  0  0  0  0  0  0  0  0
    2.1340   -2.6418    0.0000 C   0  0  0  0  0  0  0  0  0  0  0  0
    3.8660   -2.6418    0.0000 C   0  0  0  0  0  0  0  0  0  0  0  0
    7.0929    2.1607    0.0000 C   0  0  0  0  0  0  0  0  0  0  0  0
    8.1756    0.9583    0.0000 C   0  0  0  0  0  0  0  0  0  0  0  0
    2.1340   -3.6418    0.0000 C   0  0  0  0  0  0  0  0  0  0  0  0
    3.8660   -3.6418    0.0000 C   0  0  0  0  0  0  0  0  0  0  0  0
    3.0000   -4.1418    0.0000 C   0  0  0  0  0  0  0  0  0  0  0  0
    8.2144    3.5456    0.0000 C   0  0  0  0  0  0  0  0  0  0  0  0
    6.2269    2.6607    0.0000 C   0  0  0  0  0  0  0  0  0  0  0  0
    8.5823    0.0448    0.0000 C   0  0  0  0  0  0  0  0  0  0  0  0
    9.1654    3.8546    0.0000 C   0  0  0  0  0  0  0  0  0  0  0  0
    3.0000   -5.1418    0.0000 C   0  0  0  0  0  0  0  0  0  0  0  0
    9.9086    3.1855    0.0000 C   0  0  0  0  0  0  0  0  0  0  0  0
    9.3733    4.8328    0.0000 C   0  0  0  0  0  0  0  0  0  0  0  0
   10.8596    3.4945    0.0000 C   0  0  0  0  0  0  0  0  0  0  0  0
   10.3244    5.1418    0.0000 C   0  0  0  0  0  0  0  0  0  0  0  0
   11.0675    4.4727    0.0000 C   0  0  0  0  0  0  0  0  0  0  0  0
    3.9060   -0.1664    0.0000 H   0  0  0  0  0  0  0  0  0  0  0  0
    4.1064    1.5260    0.0000 H   0  0  0  0  0  0  0  0  0  0  0  0
    3.4352    2.0136    0.0000 H   0  0  0  0  0  0  0  0  0  0  0  0
    2.5648    2.0136    0.0000 H   0  0  0  0  0  0  0  0  0  0  0  0
    1.8936    1.5260    0.0000 H   0  0  0  0  0  0  0  0  0  0  0  0
    1.6246    0.6982    0.0000 H   0  0  0  0  0  0  0  0  0  0  0  0
    1.8810   -0.0910    0.0000 H   0  0  0  0  0  0  0  0  0  0  0  0
    5.3743    1.4126    0.0000 H   0  0  0  0  0  0  0  0  0  0  0  0
    6.1632   -0.0503    0.0000 H   0  0  0  0  0  0  0  0  0  0  0  0
    6.9428    0.1154    0.0000 H   0  0  0  0  0  0  0  0  0  0  0  0
    1.5970   -2.3318    0.0000 H   0  0  0  0  0  0  0  0  0  0  0  0
    4.4030   -2.3318    0.0000 H   0  0  0  0  0  0  0  0  0  0  0  0
    1.5970   -3.9518    0.0000 H   0  0  0  0  0  0  0  0  0  0  0  0
    4.4030   -3.9518    0.0000 H   0  0  0  0  0  0  0  0  0  0  0  0
    8.1281    4.1596    0.0000 H   0  0  0  0  0  0  0  0  0  0  0  0
    7.5947    3.5673    0.0000 H   0  0  0  0  0  0  0  0  0  0  0  0
    6.5369    3.1977    0.0000 H   0  0  0  0  0  0  0  0  0  0  0  0
    5.6899    2.9707    0.0000 H   0  0  0  0  0  0  0  0  0  0  0  0
    5.9169    2.1238    0.0000 H   0  0  0  0  0  0  0  0  0  0  0  0
    8.0159   -0.2074    0.0000 H   0  0  0  0  0  0  0  0  0  0  0  0
    8.8345   -0.5216    0.0000 H   0  0  0  0  0  0  0  0  0  0  0  0
    9.1487    0.2969    0.0000 H   0  0  0  0  0  0  0  0  0  0  0  0
    2.3800   -5.1418    0.0000 H   0  0  0  0  0  0  0  0  0  0  0  0
    3.0000   -5.7618    0.0000 H   0  0  0  0  0  0  0  0  0  0  0  0
    3.6200   -5.1418    0.0000 H   0  0  0  0  0  0  0  0  0  0  0  0
    9.7796    2.5790    0.0000 H   0  0  0  0  0  0  0  0  0  0  0  0
    8.9126    5.2476    0.0000 H   0  0  0  0  0  0  0  0  0  0  0  0
   11.3204    3.0797    0.0000 H   0  0  0  0  0  0  0  0  0  0  0  0
   10.4533    5.7482    0.0000 H   0  0  0  0  0  0  0  0  0  0  0  0
   11.6572    4.6643    0.0000 H   0  0  0  0  0  0  0  0  0  0  0  0
  1  2  2  0  0  0  0
  1  3  2  0  0  0  0
  1  5  1  0  0  0  0
  1 14  1  0  0  0  0
  4 13  2  0  0  0  0
  5  9  1  0  0  0  0
  5 12  1  0  0  0  0
  6 13  1  0  0  0  0
  6 15  1  0  0  0  0
  6 41  1  0  0  0  0
  7  8  1  0  0  0  0
  7 19  1  0  0  0  0
  7 24  1  0  0  0  0
  8 20  2  0  0  0  0
  9 10  1  0  0  0  0
  9 13  1  1  0  0  0
  9 34  1  0  0  0  0
 10 11  1  0  0  0  0
 10 35  1  0  0  0  0
 10 36  1  0  0  0  0
 11 12  1  0  0  0  0
 11 37  1  0  0  0  0
 11 38  1  0  0  0  0
 12 39  1  0  0  0  0
 12 40  1  0  0  0  0
 14 17  2  0  0  0  0
 14 18  1  0  0  0  0
 15 16  1  0  0  0  0
 15 42  1  0  0  0  0
 15 43  1  0  0  0  0
 16 19  2  0  0  0  0
 16 20  1  0  0  0  0
 17 21  1  0  0  0  0
 17 44  1  0  0  0  0
 18 22  2  0  0  0  0
 18 45  1  0  0  0  0
 19 25  1  0  0  0  0
 20 26  1  0  0  0  0
 21 23  2  0  0  0  0
 21 46  1  0  0  0  0
 22 23  1  0  0  0  0
 22 47  1  0  0  0  0
 23 28  1  0  0  0  0
 24 27  1  0  0  0  0
 24 48  1  0  0  0  0
 24 49  1  0  0  0  0
 25 50  1  0  0  0  0
 25 51  1  0  0  0  0
 25 52  1  0  0  0  0
 26 53  1  0  0  0  0
 26 54  1  0  0  0  0
 26 55  1  0  0  0  0
 27 29  2  0  0  0  0
 27 30  1  0  0  0  0
 28 56  1  0  0  0  0
 28 57  1  0  0  0  0
 28 58  1  0  0  0  0
 29 31  1  0  0  0  0
 29 59  1  0  0  0  0
 30 32  2  0  0  0  0
 30 60  1  0  0  0  0
 31 33  2  0  0  0  0
 31 61  1  0  0  0  0
 32 33  1  0  0  0  0
 32 62  1  0  0  0  0
 33 63  1  0  0  0  0
M  END
> <PUBCHEM_COMPOUND_CID>
17396082

> <PUBCHEM_COMPOUND_CANONICALIZED>
1

> <PUBCHEM_CACTVS_COMPLEXITY>
756

> <PUBCHEM_CACTVS_HBOND_ACCEPTOR>
5

> <PUBCHEM_CACTVS_HBOND_DONOR>
1

> <PUBCHEM_CACTVS_ROTATABLE_BOND>
7

> <PUBCHEM_CACTVS_SUBSKEYS>
AAADceB7sABAAAAAAAAAAAAAAAAAAWLAAAAwYAAAAAAAAAAB0AAAHgQYQAAADCjB3gQygZLIAAKqAyVyVHDSBBAhgAAY2Lm4RJgIYDLA0fGUpAhgngDIyAcYgQAOEAAAAAAAAAAgAAAAAAAAAAAAAAAAAA==

> <PUBCHEM_IUPAC_OPENEYE_NAME>
(2S)-N-[(1-benzyl-3,5-dimethyl-pyrazol-4-yl)methyl]-1-(p-tolylsulfonyl)pyrrolidine-2-carboxamide

> <PUBCHEM_IUPAC_CAS_NAME>
(2S)-N-[[3,5-dimethyl-1-(phenylmethyl)-4-pyrazolyl]methyl]-1-(4-methylphenyl)sulfonyl-2-pyrrolidinecarboxamide

> <PUBCHEM_IUPAC_NAME>
(2S)-N-[(1-benzyl-3,5-dimethylpyrazol-4-yl)methyl]-1-(4-methylphenyl)sulfonylpyrrolidine-2-carboxamide

> <PUBCHEM_IUPAC_SYSTEMATIC_NAME>
(2S)-N-[[3,5-dimethyl-1-(phenylmethyl)pyrazol-4-yl]methyl]-1-(4-methylphenyl)sulfonyl-pyrrolidine-2-carboxamide

> <PUBCHEM_IUPAC_TRADITIONAL_NAME>
(2S)-N-[(1-benzyl-3,5-dimethyl-pyrazol-4-yl)methyl]-1-tosyl-pyrrolidine-2-carboxamide

> <PUBCHEM_IUPAC_INCHI>
InChI=1S/C25H30N4O3S/c1-18-11-13-22(14-12-18)33(31,32)29-15-7-10-24(29)25(30)26-16-23-19(2)27-28(20(23)3)17-21-8-5-4-6-9-21/h4-6,8-9,11-14,24H,7,10,15-17H2,1-3H3,(H,26,30)/t24-/m0/s1

> <PUBCHEM_IUPAC_INCHIKEY>
CXQQFMHXCQUGBH-DEOSSOPVSA-N

> <PUBCHEM_XLOGP3_AA>
3.5

> <PUBCHEM_EXACT_MASS>
466.203862

> <PUBCHEM_MOLECULAR_FORMULA>
C25H30N4O3S

> <PUBCHEM_MOLECULAR_WEIGHT>
466.5957

> <PUBCHEM_OPENEYE_CAN_SMILES>
CC1=CC=C(C=C1)S(=O)(=O)N2CCCC2C(=O)NCC3=C(N(N=C3C)CC4=CC=CC=C4)C

> <PUBCHEM_OPENEYE_ISO_SMILES>
CC1=CC=C(C=C1)S(=O)(=O)N2CCC[C@H]2C(=O)NCC3=C(N(N=C3C)CC4=CC=CC=C4)C

> <PUBCHEM_CACTVS_TPSA>
92.7

> <PUBCHEM_MONOISOTOPIC_WEIGHT>
466.203862

> <PUBCHEM_TOTAL_CHARGE>
0

> <PUBCHEM_HEAVY_ATOM_COUNT>
33

> <PUBCHEM_ATOM_DEF_STEREO_COUNT>
1

> <PUBCHEM_ATOM_UDEF_STEREO_COUNT>
0

> <PUBCHEM_BOND_DEF_STEREO_COUNT>
0

> <PUBCHEM_BOND_UDEF_STEREO_COUNT>
0

> <PUBCHEM_ISOTOPIC_ATOM_COUNT>
0

> <PUBCHEM_COMPONENT_COUNT>
1

> <PUBCHEM_CACTVS_TAUTO_COUNT>
2

> <PUBCHEM_COORDINATE_TYPE>
1
5
255

> <PUBCHEM_BONDANNOTATIONS>
14  17  8
14  18  8
16  19  8
16  20  8
17  21  8
18  22  8
21  23  8
22  23  8
27  29  8
27  30  8
29  31  8
30  32  8
31  33  8
32  33  8
7  19  8
7  8  8
8  20  8
9  13  5

$$$$

