9848
  -OEChem-06261204073D

 12 11  0     0  0  0  0  0  0999 V2000
   -1.9752    0.7559    0.5907 F   0  0  0  0  0  0  0  0  0  0  0  0
    2.3150    0.7281   -0.2047 N   0  0  0  0  0  0  0  0  0  0  0  0
   -0.7508   -0.9577   -0.4533 C   0  0  0  0  0  0  0  0  0  0  0  0
    0.4023   -0.9107    0.5503 C   0  0  0  0  0  0  0  0  0  0  0  0
   -1.4614    0.3788   -0.6102 C   0  0  0  0  0  0  0  0  0  0  0  0
    1.4701    0.0056    0.1273 C   0  0  0  0  0  0  0  0  0  0  0  0
   -0.3844   -1.2880   -1.4326 H   0  0  0  0  0  0  0  0  0  0  0  0
   -1.4764   -1.7021   -0.1051 H   0  0  0  0  0  0  0  0  0  0  0  0
    0.0266   -0.6104    1.5351 H   0  0  0  0  0  0  0  0  0  0  0  0
    0.8162   -1.9194    0.6633 H   0  0  0  0  0  0  0  0  0  0  0  0
   -0.7949    1.1708   -0.9622 H   0  0  0  0  0  0  0  0  0  0  0  0
   -2.2936    0.2897   -1.3147 H   0  0  0  0  0  0  0  0  0  0  0  0
  1  5  1  0  0  0  0
  2  6  3  0  0  0  0
  3  4  1  0  0  0  0
  3  5  1  0  0  0  0
  3  7  1  0  0  0  0
  3  8  1  0  0  0  0
  4  6  1  0  0  0  0
  4  9  1  0  0  0  0
  4 10  1  0  0  0  0
  5 11  1  0  0  0  0
  5 12  1  0  0  0  0
M  END
> <PUBCHEM_COMPOUND_CID>
9848

> <PUBCHEM_CONFORMER_RMSD>
0.4

> <PUBCHEM_CONFORMER_DIVERSEORDER>
1
5
9
4
6
2
8
7
3

> <PUBCHEM_MMFF94_PARTIAL_CHARGES>
5
1 -0.34
2 -0.56
4 0.2
5 0.34
6 0.36

> <PUBCHEM_EFFECTIVE_ROTOR_COUNT>
2

> <PUBCHEM_PHARMACOPHORE_FEATURES>
1
1 2 acceptor

> <PUBCHEM_HEAVY_ATOM_COUNT>
6

> <PUBCHEM_ATOM_DEF_STEREO_COUNT>
0

> <PUBCHEM_ATOM_UDEF_STEREO_COUNT>
0

> <PUBCHEM_BOND_DEF_STEREO_COUNT>
0

> <PUBCHEM_BOND_UDEF_STEREO_COUNT>
0

> <PUBCHEM_ISOTOPIC_ATOM_COUNT>
0

> <PUBCHEM_COMPONENT_COUNT>
1

> <PUBCHEM_CACTVS_TAUTO_COUNT>
1

> <PUBCHEM_CONFORMER_ID>
0000267800000001

> <PUBCHEM_MMFF94_ENERGY>
0.25

> <PUBCHEM_FEATURE_SELFOVERLAP>
5.074

> <PUBCHEM_SHAPE_FINGERPRINT>
14390081 3 18187653440418002024
16714656 1 18041000579378521679
20096714 4 18412550928633327134
21040471 1 18261682548671641890
24536 1 18188790412423427582
29004967 10 14476967791575166484
5943 1 17475574650130642507

> <PUBCHEM_SHAPE_MULTIPOLES>
111.22
2.74
1.07
0.79
0.64
0.15
-0.01
-1.05
0.01
-0.06
-0.02
-0.2
0.01
-0.22

> <PUBCHEM_SHAPE_SELFOVERLAP>
196.842

> <PUBCHEM_SHAPE_VOLUME>
70.7

> <PUBCHEM_COORDINATE_TYPE>
2
5
10

$$$$

