17395801
  -OEChem-06241222522D

 45 47  0     1  0  0  0  0  0999 V2000
    2.6691   -0.4920    0.0000 S   0  0  0  0  0  0  0  0  0  0  0  0
    6.1808    0.6012    0.0000 O   0  0  0  0  0  0  0  0  0  0  0  0
   10.5109    2.1012    0.0000 O   0  0  0  0  0  0  0  0  0  0  0  0
    7.9128   -0.3988    0.0000 N   0  0  3  0  0  0  0  0  0  0  0  0
    5.3147   -0.8988    0.0000 N   0  0  0  0  0  0  0  0  0  0  0  0
   10.5109   -0.8988    0.0000 N   0  0  0  0  0  0  0  0  0  0  0  0
    9.6448    0.6012    0.0000 N   0  0  0  0  0  0  0  0  0  0  0  0
    8.7788   -0.8988    0.0000 C   0  0  0  0  0  0  0  0  0  0  0  0
    4.4487   -0.3988    0.0000 C   0  0  3  0  0  0  0  0  0  0  0  0
    7.0468   -0.8988    0.0000 C   0  0  0  0  0  0  0  0  0  0  0  0
    9.6448   -0.3988    0.0000 C   0  0  0  0  0  0  0  0  0  0  0  0
    6.1808   -0.3988    0.0000 C   0  0  0  0  0  0  0  0  0  0  0  0
    3.5827   -0.8988    0.0000 C   0  0  0  0  0  0  0  0  0  0  0  0
    7.9128    0.6012    0.0000 C   0  0  0  0  0  0  0  0  0  0  0  0
   11.3769   -0.3988    0.0000 C   0  0  0  0  0  0  0  0  0  0  0  0
    4.4487    0.6012    0.0000 C   0  0  0  0  0  0  0  0  0  0  0  0
   11.3769    0.6012    0.0000 C   0  0  0  0  0  0  0  0  0  0  0  0
   10.5109    1.1012    0.0000 C   0  0  0  0  0  0  0  0  0  0  0  0
    3.4782   -1.8933    0.0000 C   0  0  0  0  0  0  0  0  0  0  0  0
   12.2708   -0.9334    0.0000 C   0  0  0  0  0  0  0  0  0  0  0  0
   12.2708    1.1359    0.0000 C   0  0  0  0  0  0  0  0  0  0  0  0
    2.5000   -2.1012    0.0000 C   0  0  0  0  0  0  0  0  0  0  0  0
   13.1769   -0.4196    0.0000 C   0  0  0  0  0  0  0  0  0  0  0  0
   13.1769    0.6220    0.0000 C   0  0  0  0  0  0  0  0  0  0  0  0
    2.0000   -1.2352    0.0000 C   0  0  0  0  0  0  0  0  0  0  0  0
    8.3803   -1.3737    0.0000 H   0  0  0  0  0  0  0  0  0  0  0  0
    9.1774   -1.3737    0.0000 H   0  0  0  0  0  0  0  0  0  0  0  0
    4.9856   -0.0888    0.0000 H   0  0  0  0  0  0  0  0  0  0  0  0
    6.6482   -1.3737    0.0000 H   0  0  0  0  0  0  0  0  0  0  0  0
    7.4453   -1.3737    0.0000 H   0  0  0  0  0  0  0  0  0  0  0  0
    5.3147   -1.5188    0.0000 H   0  0  0  0  0  0  0  0  0  0  0  0
    8.5328    0.6012    0.0000 H   0  0  0  0  0  0  0  0  0  0  0  0
    7.9128    1.2212    0.0000 H   0  0  0  0  0  0  0  0  0  0  0  0
    7.2928    0.6012    0.0000 H   0  0  0  0  0  0  0  0  0  0  0  0
   10.5109   -1.5188    0.0000 H   0  0  0  0  0  0  0  0  0  0  0  0
    5.0687    0.6012    0.0000 H   0  0  0  0  0  0  0  0  0  0  0  0
    4.4487    1.2212    0.0000 H   0  0  0  0  0  0  0  0  0  0  0  0
    3.8287    0.6012    0.0000 H   0  0  0  0  0  0  0  0  0  0  0  0
    3.9389   -2.3082    0.0000 H   0  0  0  0  0  0  0  0  0  0  0  0
   12.2637   -1.5534    0.0000 H   0  0  0  0  0  0  0  0  0  0  0  0
   12.2637    1.7558    0.0000 H   0  0  0  0  0  0  0  0  0  0  0  0
    2.2478   -2.6676    0.0000 H   0  0  0  0  0  0  0  0  0  0  0  0
   13.7127   -0.7317    0.0000 H   0  0  0  0  0  0  0  0  0  0  0  0
   13.7127    0.9341    0.0000 H   0  0  0  0  0  0  0  0  0  0  0  0
    1.3834   -1.1704    0.0000 H   0  0  0  0  0  0  0  0  0  0  0  0
  1 13  1  0  0  0  0
  1 25  1  0  0  0  0
  2 12  2  0  0  0  0
  3 18  2  0  0  0  0
  4  8  1  0  0  0  0
  4 10  1  0  0  0  0
  4 14  1  0  0  0  0
  5  9  1  0  0  0  0
  5 12  1  0  0  0  0
  5 31  1  0  0  0  0
  6 11  1  0  0  0  0
  6 15  1  0  0  0  0
  6 35  1  0  0  0  0
  7 11  2  0  0  0  0
  7 18  1  0  0  0  0
  8 11  1  0  0  0  0
  8 26  1  0  0  0  0
  8 27  1  0  0  0  0
  9 13  1  0  0  0  0
  9 16  1  0  0  0  0
  9 28  1  0  0  0  0
 10 12  1  0  0  0  0
 10 29  1  0  0  0  0
 10 30  1  0  0  0  0
 13 19  2  0  0  0  0
 14 32  1  0  0  0  0
 14 33  1  0  0  0  0
 14 34  1  0  0  0  0
 15 17  1  0  0  0  0
 15 20  2  0  0  0  0
 16 36  1  0  0  0  0
 16 37  1  0  0  0  0
 16 38  1  0  0  0  0
 17 18  1  0  0  0  0
 17 21  2  0  0  0  0
 19 22  1  0  0  0  0
 19 39  1  0  0  0  0
 20 23  1  0  0  0  0
 20 40  1  0  0  0  0
 21 24  1  0  0  0  0
 21 41  1  0  0  0  0
 22 25  2  0  0  0  0
 22 42  1  0  0  0  0
 23 24  2  0  0  0  0
 23 43  1  0  0  0  0
 24 44  1  0  0  0  0
 25 45  1  0  0  0  0
M  END
> <PUBCHEM_COMPOUND_CID>
17395801

> <PUBCHEM_COMPOUND_CANONICALIZED>
1

> <PUBCHEM_CACTVS_COMPLEXITY>
539

> <PUBCHEM_CACTVS_HBOND_ACCEPTOR>
4

> <PUBCHEM_CACTVS_HBOND_DONOR>
2

> <PUBCHEM_CACTVS_ROTATABLE_BOND>
6

> <PUBCHEM_CACTVS_SUBSKEYS>
AAADceB7sABAAAAAAAAAAAAAAAAAASAAAAAwQAAAAAAAAACBwAAAHgQQAAAADCjF2ASzwYPAAAisAidydACDAIElChBJiJmYZMgIYDrg3bGUIYhglgDoyccYiACOAAAAAAACAAAAAAAAAAQAAAAAAAAAAA==

> <PUBCHEM_IUPAC_OPENEYE_NAME>
2-[methyl-[(4-oxo-1H-quinazolin-2-yl)methyl]amino]-N-[1-(2-thienyl)ethyl]acetamide

> <PUBCHEM_IUPAC_CAS_NAME>
2-[methyl-[(4-oxo-1H-quinazolin-2-yl)methyl]amino]-N-(1-thiophen-2-ylethyl)acetamide

> <PUBCHEM_IUPAC_NAME>
2-[methyl-[(4-oxo-1H-quinazolin-2-yl)methyl]amino]-N-(1-thiophen-2-ylethyl)acetamide

> <PUBCHEM_IUPAC_SYSTEMATIC_NAME>
2-[methyl-[(4-oxidanylidene-1H-quinazolin-2-yl)methyl]amino]-N-(1-thiophen-2-ylethyl)ethanamide

> <PUBCHEM_IUPAC_TRADITIONAL_NAME>
2-[(4-keto-1H-quinazolin-2-yl)methyl-methyl-amino]-N-[1-(2-thienyl)ethyl]acetamide

> <PUBCHEM_IUPAC_INCHI>
InChI=1S/C18H20N4O2S/c1-12(15-8-5-9-25-15)19-17(23)11-22(2)10-16-20-14-7-4-3-6-13(14)18(24)21-16/h3-9,12H,10-11H2,1-2H3,(H,19,23)(H,20,21,24)

> <PUBCHEM_IUPAC_INCHIKEY>
DHWDCEVWVLNQSS-UHFFFAOYSA-N

> <PUBCHEM_XLOGP3_AA>
1.7

> <PUBCHEM_EXACT_MASS>
356.130697

> <PUBCHEM_MOLECULAR_FORMULA>
C18H20N4O2S

> <PUBCHEM_MOLECULAR_WEIGHT>
356.442

> <PUBCHEM_OPENEYE_CAN_SMILES>
CC(C1=CC=CS1)NC(=O)CN(C)CC2=NC(=O)C3=CC=CC=C3N2

> <PUBCHEM_OPENEYE_ISO_SMILES>
CC(C1=CC=CS1)NC(=O)CN(C)CC2=NC(=O)C3=CC=CC=C3N2

> <PUBCHEM_CACTVS_TPSA>
102

> <PUBCHEM_MONOISOTOPIC_WEIGHT>
356.130697

> <PUBCHEM_TOTAL_CHARGE>
0

> <PUBCHEM_HEAVY_ATOM_COUNT>
25

> <PUBCHEM_ATOM_DEF_STEREO_COUNT>
0

> <PUBCHEM_ATOM_UDEF_STEREO_COUNT>
1

> <PUBCHEM_BOND_DEF_STEREO_COUNT>
0

> <PUBCHEM_BOND_UDEF_STEREO_COUNT>
0

> <PUBCHEM_ISOTOPIC_ATOM_COUNT>
0

> <PUBCHEM_COMPONENT_COUNT>
1

> <PUBCHEM_CACTVS_TAUTO_COUNT>
20

> <PUBCHEM_COORDINATE_TYPE>
1
5
255

> <PUBCHEM_BONDANNOTATIONS>
1  13  8
1  25  8
13  19  8
15  17  8
15  20  8
17  18  8
17  21  8
19  22  8
20  23  8
21  24  8
22  25  8
23  24  8
6  11  8
6  15  8
7  11  8
7  18  8
9  16  3

$$$$

