6443
  -OEChem-06261201193D

 16 15  0     1  0  0  0  0  0999 V2000
    0.4720   -1.6569   -1.1497 Cl  0  0  0  0  0  0  0  0  0  0  0  0
   -0.1919   -1.1940    1.6402 Cl  0  0  0  0  0  0  0  0  0  0  0  0
   -1.7239    1.6859    0.6867 Cl  0  0  0  0  0  0  0  0  0  0  0  0
    2.4194   -0.0634    0.6350 O   0  0  0  0  0  0  0  0  0  0  0  0
    1.4967    1.2398   -1.0749 O   0  0  0  0  0  0  0  0  0  0  0  0
    0.0422   -0.3665    0.0509 C   0  0  0  0  0  0  0  0  0  0  0  0
   -1.2690    0.3327   -0.4119 C   0  0  1  0  0  0  0  0  0  0  0  0
    1.2455    0.6022    0.1743 C   0  0  0  0  0  0  0  0  0  0  0  0
   -2.4910   -0.5799   -0.5507 C   0  0  0  0  0  0  0  0  0  0  0  0
   -1.0958    0.8048   -1.3861 H   0  0  0  0  0  0  0  0  0  0  0  0
    1.0322    1.3868    0.9076 H   0  0  0  0  0  0  0  0  0  0  0  0
   -2.7823   -1.0303    0.4036 H   0  0  0  0  0  0  0  0  0  0  0  0
   -3.3530   -0.0126   -0.9210 H   0  0  0  0  0  0  0  0  0  0  0  0
   -2.3150   -1.3873   -1.2671 H   0  0  0  0  0  0  0  0  0  0  0  0
    2.4098   -0.9643    0.2703 H   0  0  0  0  0  0  0  0  0  0  0  0
    1.9028    2.1016   -0.8812 H   0  0  0  0  0  0  0  0  0  0  0  0
  1  6  1  0  0  0  0
  2  6  1  0  0  0  0
  3  7  1  0  0  0  0
  4  8  1  0  0  0  0
  4 15  1  0  0  0  0
  5  8  1  0  0  0  0
  5 16  1  0  0  0  0
  6  7  1  0  0  0  0
  6  8  1  0  0  0  0
  7  9  1  0  0  0  0
  7 10  1  0  0  0  0
  8 11  1  0  0  0  0
  9 12  1  0  0  0  0
  9 13  1  0  0  0  0
  9 14  1  0  0  0  0
M  END
> <PUBCHEM_COMPOUND_CID>
6443

> <PUBCHEM_CONFORMER_RMSD>
0.4

> <PUBCHEM_CONFORMER_DIVERSEORDER>
1
12
4
13
15
7
5
2
14
8
3
11
9
16
10
6

> <PUBCHEM_MMFF94_PARTIAL_CHARGES>
10
1 -0.29
15 0.4
16 0.4
2 -0.29
3 -0.29
4 -0.68
5 -0.68
6 0.58
7 0.29
8 0.56

> <PUBCHEM_EFFECTIVE_ROTOR_COUNT>
2

> <PUBCHEM_PHARMACOPHORE_FEATURES>
4
1 4 acceptor
1 4 donor
1 5 acceptor
1 5 donor

> <PUBCHEM_HEAVY_ATOM_COUNT>
9

> <PUBCHEM_ATOM_DEF_STEREO_COUNT>
0

> <PUBCHEM_ATOM_UDEF_STEREO_COUNT>
1

> <PUBCHEM_BOND_DEF_STEREO_COUNT>
0

> <PUBCHEM_BOND_UDEF_STEREO_COUNT>
0

> <PUBCHEM_ISOTOPIC_ATOM_COUNT>
0

> <PUBCHEM_COMPONENT_COUNT>
1

> <PUBCHEM_CACTVS_TAUTO_COUNT>
1

> <PUBCHEM_CONFORMER_ID>
0000192B00000001

> <PUBCHEM_MMFF94_ENERGY>
10.0798

> <PUBCHEM_FEATURE_SELFOVERLAP>
20.382

> <PUBCHEM_SHAPE_FINGERPRINT>
12423570 1 14103344999992790835
12897270 3 18113623365448203613
137420 1 15375628533343773199
16945 1 18411706456411134095
20653085 51 18041264539462924448
21040471 1 18187643617495239820
23552423 10 18263356052888122543
24536 1 18270380759415469829
29004967 10 4750877108123980975
5084963 1 18201168688532680733
5943 1 4930577886959087506

> <PUBCHEM_SHAPE_MULTIPOLES>
179.09
2.75
1.72
1.35
0.38
0.04
0.46
-0.59
-0.19
0.23
-0.21
-0.21
0.35
-0.25

> <PUBCHEM_SHAPE_SELFOVERLAP>
306.764

> <PUBCHEM_SHAPE_VOLUME>
121.8

> <PUBCHEM_COORDINATE_TYPE>
2
5
10

$$$$

