17396621
  -OEChem-06241222572D

 39 41  0     1  0  0  0  0  0999 V2000
    4.6783    0.3988    0.0000 S   0  0  0  0  0  0  0  0  0  0  0  0
   11.3497   -2.2036    0.0000 O   0  0  0  0  0  0  0  0  0  0  0  0
    6.7619    0.3375    0.0000 O   0  0  0  0  0  0  0  0  0  0  0  0
    7.7619   -1.3945    0.0000 O   0  0  0  0  0  0  0  0  0  0  0  0
    6.7619    2.0696    0.0000 O   0  0  0  0  0  0  0  0  0  0  0  0
    9.2619   -0.5285    0.0000 N   0  0  0  0  0  0  0  0  0  0  0  0
   10.7619   -1.3945    0.0000 C   0  0  3  0  0  0  0  0  0  0  0  0
   11.3497   -0.5855    0.0000 C   0  0  0  0  0  0  0  0  0  0  0  0
   12.3007   -0.8945    0.0000 C   0  0  0  0  0  0  0  0  0  0  0  0
   12.3007   -1.8945    0.0000 C   0  0  0  0  0  0  0  0  0  0  0  0
    9.7619   -1.3945    0.0000 C   0  0  0  0  0  0  0  0  0  0  0  0
    8.2619   -0.5285    0.0000 C   0  0  0  0  0  0  0  0  0  0  0  0
    7.7619    0.3375    0.0000 C   0  0  0  0  0  0  0  0  0  0  0  0
    3.7320    1.7036    0.0000 C   0  0  0  0  0  0  0  0  0  0  0  0
    3.7320    0.7035    0.0000 C   0  0  0  0  0  0  0  0  0  0  0  0
    5.2619    1.2035    0.0000 C   0  0  0  0  0  0  0  0  0  0  0  0
    4.6783    2.0083    0.0000 C   0  0  0  0  0  0  0  0  0  0  0  0
    6.2619    1.2035    0.0000 C   0  0  0  0  0  0  0  0  0  0  0  0
    2.8660    2.2036    0.0000 C   0  0  0  0  0  0  0  0  0  0  0  0
    2.8660    0.2035    0.0000 C   0  0  0  0  0  0  0  0  0  0  0  0
    2.0000    1.7036    0.0000 C   0  0  0  0  0  0  0  0  0  0  0  0
    2.0000    0.7035    0.0000 C   0  0  0  0  0  0  0  0  0  0  0  0
   10.4804   -1.9470    0.0000 H   0  0  0  0  0  0  0  0  0  0  0  0
   11.6018   -0.0191    0.0000 H   0  0  0  0  0  0  0  0  0  0  0  0
   10.8127   -0.2755    0.0000 H   0  0  0  0  0  0  0  0  0  0  0  0
   12.9173   -0.9593    0.0000 H   0  0  0  0  0  0  0  0  0  0  0  0
   12.4296   -0.2881    0.0000 H   0  0  0  0  0  0  0  0  0  0  0  0
   12.4296   -2.5010    0.0000 H   0  0  0  0  0  0  0  0  0  0  0  0
   12.9173   -1.8297    0.0000 H   0  0  0  0  0  0  0  0  0  0  0  0
    9.1793   -1.6066    0.0000 H   0  0  0  0  0  0  0  0  0  0  0  0
    9.8695   -2.0051    0.0000 H   0  0  0  0  0  0  0  0  0  0  0  0
    9.5719    0.0084    0.0000 H   0  0  0  0  0  0  0  0  0  0  0  0
    8.3445    0.5496    0.0000 H   0  0  0  0  0  0  0  0  0  0  0  0
    7.6542    0.9481    0.0000 H   0  0  0  0  0  0  0  0  0  0  0  0
    4.8709    2.5976    0.0000 H   0  0  0  0  0  0  0  0  0  0  0  0
    2.8660    2.8236    0.0000 H   0  0  0  0  0  0  0  0  0  0  0  0
    2.8660   -0.4165    0.0000 H   0  0  0  0  0  0  0  0  0  0  0  0
    1.4631    2.0136    0.0000 H   0  0  0  0  0  0  0  0  0  0  0  0
    1.4631    0.3935    0.0000 H   0  0  0  0  0  0  0  0  0  0  0  0
  1 15  1  0  0  0  0
  1 16  1  0  0  0  0
  2  7  1  0  0  0  0
  2 10  1  0  0  0  0
  3 13  1  0  0  0  0
  3 18  1  0  0  0  0
  4 12  2  0  0  0  0
  5 18  2  0  0  0  0
  6 11  1  0  0  0  0
  6 12  1  0  0  0  0
  6 32  1  0  0  0  0
  7  8  1  0  0  0  0
  7 11  1  0  0  0  0
  7 23  1  0  0  0  0
  8  9  1  0  0  0  0
  8 24  1  0  0  0  0
  8 25  1  0  0  0  0
  9 10  1  0  0  0  0
  9 26  1  0  0  0  0
  9 27  1  0  0  0  0
 10 28  1  0  0  0  0
 10 29  1  0  0  0  0
 11 30  1  0  0  0  0
 11 31  1  0  0  0  0
 12 13  1  0  0  0  0
 13 33  1  0  0  0  0
 13 34  1  0  0  0  0
 14 15  1  0  0  0  0
 14 17  1  0  0  0  0
 14 19  2  0  0  0  0
 15 20  2  0  0  0  0
 16 17  2  0  0  0  0
 16 18  1  0  0  0  0
 17 35  1  0  0  0  0
 19 21  1  0  0  0  0
 19 36  1  0  0  0  0
 20 22  1  0  0  0  0
 20 37  1  0  0  0  0
 21 22  2  0  0  0  0
 21 38  1  0  0  0  0
 22 39  1  0  0  0  0
M  END
> <PUBCHEM_COMPOUND_CID>
17396621

> <PUBCHEM_COMPOUND_CANONICALIZED>
1

> <PUBCHEM_CACTVS_COMPLEXITY>
417

> <PUBCHEM_CACTVS_HBOND_ACCEPTOR>
5

> <PUBCHEM_CACTVS_HBOND_DONOR>
1

> <PUBCHEM_CACTVS_ROTATABLE_BOND>
6

> <PUBCHEM_CACTVS_SUBSKEYS>
AAADceB6OABAAAAAAAAAAAAAAAAAASJAAAAwAAAAAAAAAEgB8AAAHgQQAAAADBTh2AYwCcLABAiMAiHSGAIDAIAkCBBIiJlICMgKJjKgtRyHMQAk1gG4qYeY2KKOAAAAAAAEAAAAAAAAAAgAAAAAAAAAAA==

> <PUBCHEM_IUPAC_OPENEYE_NAME>
[2-oxo-2-(tetrahydrofuran-2-ylmethylamino)ethyl] benzothiophene-2-carboxylate

> <PUBCHEM_IUPAC_CAS_NAME>
1-benzothiophene-2-carboxylic acid [2-oxo-2-(2-oxolanylmethylamino)ethyl] ester

> <PUBCHEM_IUPAC_NAME>
[2-oxo-2-(oxolan-2-ylmethylamino)ethyl] 1-benzothiophene-2-carboxylate

> <PUBCHEM_IUPAC_SYSTEMATIC_NAME>
[2-oxidanylidene-2-(oxolan-2-ylmethylamino)ethyl] 1-benzothiophene-2-carboxylate

> <PUBCHEM_IUPAC_TRADITIONAL_NAME>
benzothiophene-2-carboxylic acid [2-keto-2-(tetrahydrofurfurylamino)ethyl] ester

> <PUBCHEM_IUPAC_INCHI>
InChI=1S/C16H17NO4S/c18-15(17-9-12-5-3-7-20-12)10-21-16(19)14-8-11-4-1-2-6-13(11)22-14/h1-2,4,6,8,12H,3,5,7,9-10H2,(H,17,18)

> <PUBCHEM_IUPAC_INCHIKEY>
JZFVIXRAVSXDKR-UHFFFAOYSA-N

> <PUBCHEM_XLOGP3_AA>
2.9

> <PUBCHEM_EXACT_MASS>
319.087829

> <PUBCHEM_MOLECULAR_FORMULA>
C16H17NO4S

> <PUBCHEM_MOLECULAR_WEIGHT>
319.37548

> <PUBCHEM_OPENEYE_CAN_SMILES>
C1CC(OC1)CNC(=O)COC(=O)C2=CC3=CC=CC=C3S2

> <PUBCHEM_OPENEYE_ISO_SMILES>
C1CC(OC1)CNC(=O)COC(=O)C2=CC3=CC=CC=C3S2

> <PUBCHEM_CACTVS_TPSA>
92.9

> <PUBCHEM_MONOISOTOPIC_WEIGHT>
319.087829

> <PUBCHEM_TOTAL_CHARGE>
0

> <PUBCHEM_HEAVY_ATOM_COUNT>
22

> <PUBCHEM_ATOM_DEF_STEREO_COUNT>
0

> <PUBCHEM_ATOM_UDEF_STEREO_COUNT>
1

> <PUBCHEM_BOND_DEF_STEREO_COUNT>
0

> <PUBCHEM_BOND_UDEF_STEREO_COUNT>
0

> <PUBCHEM_ISOTOPIC_ATOM_COUNT>
0

> <PUBCHEM_COMPONENT_COUNT>
1

> <PUBCHEM_CACTVS_TAUTO_COUNT>
2

> <PUBCHEM_COORDINATE_TYPE>
1
5
255

> <PUBCHEM_BONDANNOTATIONS>
1  15  8
1  16  8
14  15  8
14  17  8
14  19  8
15  20  8
16  17  8
19  21  8
20  22  8
21  22  8
7  11  3

$$$$

