7105
  -OEChem-06261201463D

 28 30  0     0  0  0  0  0  0999 V2000
   -0.0040    0.0681   -0.0011 O   0  0  0  0  0  0  0  0  0  0  0  0
    0.7612   -2.0601   -0.0003 N   0  0  0  0  0  0  0  0  0  0  0  0
   -1.0698   -0.7729   -0.0009 C   0  0  0  0  0  0  0  0  0  0  0  0
   -2.3692   -0.1464    0.0001 C   0  0  0  0  0  0  0  0  0  0  0  0
    2.3484   -0.1448    0.0002 C   0  0  0  0  0  0  0  0  0  0  0  0
    1.0601   -0.7808   -0.0008 C   0  0  0  0  0  0  0  0  0  0  0  0
   -0.6101   -2.0587   -0.0006 C   0  0  0  0  0  0  0  0  0  0  0  0
   -3.5216   -0.9324    0.0019 C   0  0  0  0  0  0  0  0  0  0  0  0
   -2.4738    1.2446   -0.0014 C   0  0  0  0  0  0  0  0  0  0  0  0
    2.4437    1.2499    0.0008 C   0  0  0  0  0  0  0  0  0  0  0  0
    3.5143   -0.9161    0.0000 C   0  0  0  0  0  0  0  0  0  0  0  0
   -4.7785   -0.3275    0.0018 C   0  0  0  0  0  0  0  0  0  0  0  0
   -3.7307    1.8494   -0.0013 C   0  0  0  0  0  0  0  0  0  0  0  0
    3.6941    1.8680    0.0008 C   0  0  0  0  0  0  0  0  0  0  0  0
    4.7647   -0.2978    0.0001 C   0  0  0  0  0  0  0  0  0  0  0  0
   -4.8831    1.0632    0.0003 C   0  0  0  0  0  0  0  0  0  0  0  0
    4.8545    1.0942    0.0005 C   0  0  0  0  0  0  0  0  0  0  0  0
   -1.1706   -2.9821   -0.0001 H   0  0  0  0  0  0  0  0  0  0  0  0
   -3.4703   -2.0182    0.0029 H   0  0  0  0  0  0  0  0  0  0  0  0
   -1.5988    1.8895   -0.0028 H   0  0  0  0  0  0  0  0  0  0  0  0
    1.5636    1.8881    0.0010 H   0  0  0  0  0  0  0  0  0  0  0  0
    3.4696   -2.0027   -0.0006 H   0  0  0  0  0  0  0  0  0  0  0  0
   -5.6759   -0.9392    0.0030 H   0  0  0  0  0  0  0  0  0  0  0  0
   -3.8129    2.9324   -0.0025 H   0  0  0  0  0  0  0  0  0  0  0  0
    3.7646    2.9518    0.0010 H   0  0  0  0  0  0  0  0  0  0  0  0
    5.6686   -0.9000   -0.0002 H   0  0  0  0  0  0  0  0  0  0  0  0
   -5.8617    1.5342    0.0003 H   0  0  0  0  0  0  0  0  0  0  0  0
    5.8281    1.5755    0.0006 H   0  0  0  0  0  0  0  0  0  0  0  0
  1  3  1  0  0  0  0
  1  6  1  0  0  0  0
  2  6  2  0  0  0  0
  2  7  1  0  0  0  0
  3  4  1  0  0  0  0
  3  7  2  0  0  0  0
  4  8  2  0  0  0  0
  4  9  1  0  0  0  0
  5  6  1  0  0  0  0
  5 10  2  0  0  0  0
  5 11  1  0  0  0  0
  7 18  1  0  0  0  0
  8 12  1  0  0  0  0
  8 19  1  0  0  0  0
  9 13  2  0  0  0  0
  9 20  1  0  0  0  0
 10 14  1  0  0  0  0
 10 21  1  0  0  0  0
 11 15  2  0  0  0  0
 11 22  1  0  0  0  0
 12 16  2  0  0  0  0
 12 23  1  0  0  0  0
 13 16  1  0  0  0  0
 13 24  1  0  0  0  0
 14 17  2  0  0  0  0
 14 25  1  0  0  0  0
 15 17  1  0  0  0  0
 15 26  1  0  0  0  0
 16 27  1  0  0  0  0
 17 28  1  0  0  0  0
M  END
> <PUBCHEM_COMPOUND_CID>
7105

> <PUBCHEM_CONFORMER_RMSD>
0.6

> <PUBCHEM_CONFORMER_DIVERSEORDER>
1
2

> <PUBCHEM_MMFF94_PARTIAL_CHARGES>
28
1 -0.28
10 -0.15
11 -0.15
12 -0.15
13 -0.15
14 -0.15
15 -0.15
16 -0.15
17 -0.15
18 0.15
19 0.15
2 -0.57
20 0.15
21 0.15
22 0.15
23 0.15
24 0.15
25 0.15
26 0.15
27 0.15
28 0.15
3 0.09
4 0.05
5 0.05
6 0.43
7 0.08
8 -0.15
9 -0.15

> <PUBCHEM_EFFECTIVE_ROTOR_COUNT>
2

> <PUBCHEM_PHARMACOPHORE_FEATURES>
3
5 1 2 3 6 7 rings
6 4 8 9 12 13 16 rings
6 5 10 11 14 15 17 rings

> <PUBCHEM_HEAVY_ATOM_COUNT>
17

> <PUBCHEM_ATOM_DEF_STEREO_COUNT>
0

> <PUBCHEM_ATOM_UDEF_STEREO_COUNT>
0

> <PUBCHEM_BOND_DEF_STEREO_COUNT>
0

> <PUBCHEM_BOND_UDEF_STEREO_COUNT>
0

> <PUBCHEM_ISOTOPIC_ATOM_COUNT>
0

> <PUBCHEM_COMPONENT_COUNT>
1

> <PUBCHEM_CACTVS_TAUTO_COUNT>
1

> <PUBCHEM_CONFORMER_ID>
00001BC100000001

> <PUBCHEM_MMFF94_ENERGY>
37.6279

> <PUBCHEM_FEATURE_SELFOVERLAP>
15.223

> <PUBCHEM_SHAPE_FINGERPRINT>
10498660 4 18411420648018611421
10608611 8 18410856559639802561
12107183 9 17692538122796105016
122479 349 18342173328380999826
12390115 104 18188754154884670777
12403259 415 18410860957692140581
12596602 18 16415476017421987896
12644460 14 18059296577540300090
12916748 109 18410005533355479698
13081056 2 18410009939992094317
13533116 47 17202775915785735611
13583140 156 16917077624697125747
14251764 18 18272376361052742954
14252887 29 12679183842770149816
14415576 193 18409727391294528855
15196674 1 18410856559645350149
17802600 8 18410859858180285445
18186145 218 18187070780722288282
200 152 18040157318695568227
20300324 65 18186523185714728677
20645477 56 18337954485227629472
20645477 70 17240750822874684478
21267235 1 18410566288575578311
212847 35 18413669111064362988
21524375 3 18410855460128480098
21652331 79 18412545409685079133
22854114 59 18272651255322060373
23227448 37 18262520290764524007
23402539 116 18260555506276988653
23402655 69 18186802486810285628
23559900 14 18189898789117371278
245318 6 17056382307705517508
26918003 58 10159703477637123718
2916195 48 18114754741544129736
335352 9 18410855482542261846
351380 180 18410576184222367864
3545911 37 18410290311151517437
4214541 1 18410575080383987841
474 4 18060415789834707740
474229 33 18410855422107004547
495365 180 17313394383721944362
4990 188 17967808362349859398
5104073 3 18413107272847907355
6333272 397 18412544292829733611
633830 44 18408606984624750718
6430166 295 18411140234045963688
69090 78 18335704909980397142
7364860 26 18192712469179138863
77779 3 18410573985151457639
9709674 26 18408597054792620670

> <PUBCHEM_SHAPE_MULTIPOLES>
339
11.02
2
0.61
0.03
0.01
0
-4.28
0
-0.01
0
0
-0.01
0

> <PUBCHEM_SHAPE_SELFOVERLAP>
754.981

> <PUBCHEM_SHAPE_VOLUME>
181.8

> <PUBCHEM_COORDINATE_TYPE>
2
5
10

$$$$

