17396079
  -OEChem-06241222543D

 56 59  0     0  0  0  0  0  0999 V2000
    5.2917    2.7158    2.7320 Cl  0  0  0  0  0  0  0  0  0  0  0  0
    4.6467   -1.2848   -0.8864 S   0  0  0  0  0  0  0  0  0  0  0  0
   -6.1693    2.9135    0.6291 S   0  0  0  0  0  0  0  0  0  0  0  0
    4.5169    4.4537    0.4585 F   0  0  0  0  0  0  0  0  0  0  0  0
   -0.9022   -3.7793    0.8374 O   0  0  0  0  0  0  0  0  0  0  0  0
    4.8438   -1.3967   -2.3154 O   0  0  0  0  0  0  0  0  0  0  0  0
    5.5360   -1.9452    0.0443 O   0  0  0  0  0  0  0  0  0  0  0  0
    3.0308   -1.7155   -0.5107 N   0  0  0  0  0  0  0  0  0  0  0  0
   -2.2321   -1.9928    0.1781 N   0  0  0  0  0  0  0  0  0  0  0  0
   -4.7186   -0.5899    0.4178 N   0  0  0  0  0  0  0  0  0  0  0  0
    0.2199   -1.7968    0.2184 C   0  0  0  0  0  0  0  0  0  0  0  0
    0.6843   -1.9574   -1.2301 C   0  0  0  0  0  0  0  0  0  0  0  0
    1.3199   -2.2302    1.1882 C   0  0  0  0  0  0  0  0  0  0  0  0
    2.0004   -1.2255   -1.4728 C   0  0  0  0  0  0  0  0  0  0  0  0
    2.6251   -1.4921    0.9080 C   0  0  0  0  0  0  0  0  0  0  0  0
   -1.0133   -2.6169    0.4396 C   0  0  0  0  0  0  0  0  0  0  0  0
   -3.4823   -2.7250    0.3742 C   0  0  0  0  0  0  0  0  0  0  0  0
   -2.3931   -0.6638   -0.4192 C   0  0  0  0  0  0  0  0  0  0  0  0
   -4.5157   -1.8716    1.1087 C   0  0  0  0  0  0  0  0  0  0  0  0
   -3.4519    0.1510    0.3261 C   0  0  0  0  0  0  0  0  0  0  0  0
   -5.7322    0.2091    1.1052 C   0  0  0  0  0  0  0  0  0  0  0  0
    4.6090    0.4321   -0.4785 C   0  0  0  0  0  0  0  0  0  0  0  0
   -6.3008    1.2625    0.1940 C   0  0  0  0  0  0  0  0  0  0  0  0
    4.9271    0.8496    0.8138 C   0  0  0  0  0  0  0  0  0  0  0  0
    4.2613    1.3716   -1.4492 C   0  0  0  0  0  0  0  0  0  0  0  0
   -6.9509    1.0952   -1.0090 C   0  0  0  0  0  0  0  0  0  0  0  0
    4.8974    2.2065    1.1354 C   0  0  0  0  0  0  0  0  0  0  0  0
    4.2317    2.7286   -1.1276 C   0  0  0  0  0  0  0  0  0  0  0  0
    4.5498    3.1460    0.1647 C   0  0  0  0  0  0  0  0  0  0  0  0
   -7.3461    2.3388   -1.5811 C   0  0  0  0  0  0  0  0  0  0  0  0
   -6.9831    3.4092   -0.7936 C   0  0  0  0  0  0  0  0  0  0  0  0
    0.0420   -0.7445    0.4518 H   0  0  0  0  0  0  0  0  0  0  0  0
    0.8136   -3.0231   -1.4628 H   0  0  0  0  0  0  0  0  0  0  0  0
   -0.0747   -1.5802   -1.9251 H   0  0  0  0  0  0  0  0  0  0  0  0
    1.0062   -2.0477    2.2235 H   0  0  0  0  0  0  0  0  0  0  0  0
    1.5072   -3.3089    1.1026 H   0  0  0  0  0  0  0  0  0  0  0  0
    2.3168   -1.4212   -2.5021 H   0  0  0  0  0  0  0  0  0  0  0  0
    1.8477   -0.1480   -1.3528 H   0  0  0  0  0  0  0  0  0  0  0  0
    2.4781   -0.4252    1.1039 H   0  0  0  0  0  0  0  0  0  0  0  0
    3.3941   -1.8745    1.5868 H   0  0  0  0  0  0  0  0  0  0  0  0
   -3.8516   -3.0072   -0.6196 H   0  0  0  0  0  0  0  0  0  0  0  0
   -3.3048   -3.6507    0.9312 H   0  0  0  0  0  0  0  0  0  0  0  0
   -1.4735   -0.0854   -0.4785 H   0  0  0  0  0  0  0  0  0  0  0  0
   -2.7152   -0.8288   -1.4558 H   0  0  0  0  0  0  0  0  0  0  0  0
   -4.1867   -1.7035    2.1428 H   0  0  0  0  0  0  0  0  0  0  0  0
   -5.4569   -2.4331    1.1480 H   0  0  0  0  0  0  0  0  0  0  0  0
   -3.5898    1.0911   -0.2198 H   0  0  0  0  0  0  0  0  0  0  0  0
   -3.0763    0.4024    1.3271 H   0  0  0  0  0  0  0  0  0  0  0  0
   -6.5802   -0.4296    1.3903 H   0  0  0  0  0  0  0  0  0  0  0  0
   -5.3460    0.6330    2.0415 H   0  0  0  0  0  0  0  0  0  0  0  0
    5.1983    0.1242    1.5768 H   0  0  0  0  0  0  0  0  0  0  0  0
    4.0069    1.0694   -2.4610 H   0  0  0  0  0  0  0  0  0  0  0  0
   -7.1379    0.1293   -1.4608 H   0  0  0  0  0  0  0  0  0  0  0  0
    3.9601    3.4602   -1.8829 H   0  0  0  0  0  0  0  0  0  0  0  0
   -7.8703    2.4430   -2.5222 H   0  0  0  0  0  0  0  0  0  0  0  0
   -7.1570    4.4585   -0.9857 H   0  0  0  0  0  0  0  0  0  0  0  0
  1 27  1  0  0  0  0
  2  6  2  0  0  0  0
  2  7  2  0  0  0  0
  2  8  1  0  0  0  0
  2 22  1  0  0  0  0
  3 23  1  0  0  0  0
  3 31  1  0  0  0  0
  4 29  1  0  0  0  0
  5 16  2  0  0  0  0
  8 14  1  0  0  0  0
  8 15  1  0  0  0  0
  9 16  1  0  0  0  0
  9 17  1  0  0  0  0
  9 18  1  0  0  0  0
 10 19  1  0  0  0  0
 10 20  1  0  0  0  0
 10 21  1  0  0  0  0
 11 12  1  0  0  0  0
 11 13  1  0  0  0  0
 11 16  1  0  0  0  0
 11 32  1  0  0  0  0
 12 14  1  0  0  0  0
 12 33  1  0  0  0  0
 12 34  1  0  0  0  0
 13 15  1  0  0  0  0
 13 35  1  0  0  0  0
 13 36  1  0  0  0  0
 14 37  1  0  0  0  0
 14 38  1  0  0  0  0
 15 39  1  0  0  0  0
 15 40  1  0  0  0  0
 17 19  1  0  0  0  0
 17 41  1  0  0  0  0
 17 42  1  0  0  0  0
 18 20  1  0  0  0  0
 18 43  1  0  0  0  0
 18 44  1  0  0  0  0
 19 45  1  0  0  0  0
 19 46  1  0  0  0  0
 20 47  1  0  0  0  0
 20 48  1  0  0  0  0
 21 23  1  0  0  0  0
 21 49  1  0  0  0  0
 21 50  1  0  0  0  0
 22 24  2  0  0  0  0
 22 25  1  0  0  0  0
 23 26  2  0  0  0  0
 24 27  1  0  0  0  0
 24 51  1  0  0  0  0
 25 28  2  0  0  0  0
 25 52  1  0  0  0  0
 26 30  1  0  0  0  0
 26 53  1  0  0  0  0
 27 29  2  0  0  0  0
 28 29  1  0  0  0  0
 28 54  1  0  0  0  0
 30 31  2  0  0  0  0
 30 55  1  0  0  0  0
 31 56  1  0  0  0  0
M  END
> <PUBCHEM_COMPOUND_CID>
17396079

> <PUBCHEM_CONFORMER_RMSD>
1.4

> <PUBCHEM_CONFORMER_DIVERSEORDER>
2
19
7
29
41
62
38
49
55
22
18
6
60
14
12
39
59
28
34
9
43
23
40
58
31
3
53
16
46
51
10
42
50
45
33
21
24
48
8
4
17
54
1
25
26
57
52
27
32
20
44
36
35
13
15
5
61
37
30
56
11
47

> <PUBCHEM_MMFF94_PARTIAL_CHARGES>
35
1 -0.18
10 -0.81
11 0.06
14 0.36
15 0.36
16 0.57
17 0.3
18 0.3
19 0.27
2 1.45
20 0.27
21 0.45
22 -0.01
23 -0.14
24 -0.15
25 -0.15
26 -0.15
27 0.18
28 -0.15
29 0.19
3 -0.08
30 -0.15
31 -0.11
4 -0.19
5 -0.57
51 0.15
52 0.15
53 0.15
54 0.15
55 0.15
56 0.15
6 -0.65
7 -0.65
8 -0.85
9 -0.66

> <PUBCHEM_EFFECTIVE_ROTOR_COUNT>
8.4

> <PUBCHEM_PHARMACOPHORE_FEATURES>
8
1 10 cation
1 5 acceptor
1 6 acceptor
1 7 acceptor
5 3 23 26 30 31 rings
6 22 24 25 27 28 29 rings
6 8 11 12 13 14 15 rings
6 9 10 17 18 19 20 rings

> <PUBCHEM_HEAVY_ATOM_COUNT>
31

> <PUBCHEM_ATOM_DEF_STEREO_COUNT>
0

> <PUBCHEM_ATOM_UDEF_STEREO_COUNT>
0

> <PUBCHEM_BOND_DEF_STEREO_COUNT>
0

> <PUBCHEM_BOND_UDEF_STEREO_COUNT>
0

> <PUBCHEM_ISOTOPIC_ATOM_COUNT>
0

> <PUBCHEM_COMPONENT_COUNT>
1

> <PUBCHEM_CACTVS_TAUTO_COUNT>
1

> <PUBCHEM_CONFORMER_ID>
0109716F00000002

> <PUBCHEM_MMFF94_ENERGY>
51.1948

> <PUBCHEM_FEATURE_SELFOVERLAP>
40.612

> <PUBCHEM_SHAPE_FINGERPRINT>
10554248 39 17095792317532590695
10556698 54 17241055417592207089
10864689 126 18341045340977444941
10904742 38 18272370880521713657
11007060 377 18272366461353995483
11386260 185 18114740538250624076
11399510 152 17274239756786659091
11456790 92 18059574737213708554
11476731 99 18189909788761466049
11621639 179 18187642450604838308
12422481 6 17346597482806966877
12925494 130 18412266120730307497
13561361 72 18130792282255382204
13782708 43 10447933854089652115
13878862 14 18261401056937198596
14211702 104 8718827583287978373
14556957 393 16878218771001554073
14739800 52 18200879590601099251
14790565 3 18412538804315463451
14930077 153 18115036195747617903
15082195 135 17749672999441478191
15475509 35 11095876056100757078
16067689 134 17685760720803250377
18335252 114 18261954162999806758
19053607 189 18266179427303740776
20058555 10 18412543215547757989
20691028 202 18412828019155615653
20715895 44 18408886239646454234
21033648 29 18202004313127642302
21682296 61 8862649210950734357
22122407 14 18339633551352860121
23191077 185 18411427181059949387
23559900 14 18410284784521150926
23569914 2 17827113712041235297
2747138 104 17914596295192947115
2748736 6 18413396436428299013
2838139 119 18409449215470256935
3472631 163 18409729590819386207
4144715 1 18200862977040351058
437795 171 17976546005195025529
4408954 64 16986619665502747384
5104073 3 17918276428465348731
5223283 242 17609186280999251695
6677587 24 16733263435778126940

> <PUBCHEM_SHAPE_MULTIPOLES>
607.71
20.77
5.05
1.73
24.82
2.47
-0.11
20.97
1.72
-1.1
-0.93
-1.88
0.64
3.76

> <PUBCHEM_SHAPE_SELFOVERLAP>
1253.452

> <PUBCHEM_SHAPE_VOLUME>
351.5

> <PUBCHEM_COORDINATE_TYPE>
2
5
10

$$$$

