14326
  -OEChem-06241222432D

 31 31  0     0  0  0  0  0  0999 V2000
    2.0000   -1.9400    0.0000 O   0  0  0  0  0  0  0  0  0  0  0  0
    3.7320    1.0600    0.0000 N   0  3  0  0  0  0  0  0  0  0  0  0
    3.7320    2.0600    0.0000 C   0  0  0  0  0  0  0  0  0  0  0  0
    4.7320    1.0600    0.0000 C   0  0  0  0  0  0  0  0  0  0  0  0
    3.7320    0.0600    0.0000 C   0  0  0  0  0  0  0  0  0  0  0  0
    2.7320    1.0600    0.0000 C   0  0  0  0  0  0  0  0  0  0  0  0
    4.5981    2.5600    0.0000 C   0  0  0  0  0  0  0  0  0  0  0  0
    5.2320    1.9260    0.0000 C   0  0  0  0  0  0  0  0  0  0  0  0
    2.8660   -0.4400    0.0000 C   0  0  0  0  0  0  0  0  0  0  0  0
    4.5981   -0.4400    0.0000 C   0  0  0  0  0  0  0  0  0  0  0  0
    2.8660   -1.4400    0.0000 C   0  0  0  0  0  0  0  0  0  0  0  0
    4.5981   -1.4400    0.0000 C   0  0  0  0  0  0  0  0  0  0  0  0
    3.7320   -1.9400    0.0000 C   0  0  0  0  0  0  0  0  0  0  0  0
    3.5200    2.6426    0.0000 H   0  0  0  0  0  0  0  0  0  0  0  0
    3.1215    1.9523    0.0000 H   0  0  0  0  0  0  0  0  0  0  0  0
    4.6244    0.4494    0.0000 H   0  0  0  0  0  0  0  0  0  0  0  0
    5.3147    0.8479    0.0000 H   0  0  0  0  0  0  0  0  0  0  0  0
    2.7320    1.6800    0.0000 H   0  0  0  0  0  0  0  0  0  0  0  0
    2.1120    1.0600    0.0000 H   0  0  0  0  0  0  0  0  0  0  0  0
    2.7320    0.4400    0.0000 H   0  0  0  0  0  0  0  0  0  0  0  0
    4.9081    2.0231    0.0000 H   0  0  0  0  0  0  0  0  0  0  0  0
    5.1350    2.8700    0.0000 H   0  0  0  0  0  0  0  0  0  0  0  0
    4.2881    3.0969    0.0000 H   0  0  0  0  0  0  0  0  0  0  0  0
    5.7690    1.6160    0.0000 H   0  0  0  0  0  0  0  0  0  0  0  0
    5.5420    2.4630    0.0000 H   0  0  0  0  0  0  0  0  0  0  0  0
    4.6951    2.2360    0.0000 H   0  0  0  0  0  0  0  0  0  0  0  0
    2.3291   -0.1300    0.0000 H   0  0  0  0  0  0  0  0  0  0  0  0
    5.1350   -0.1300    0.0000 H   0  0  0  0  0  0  0  0  0  0  0  0
    5.1350   -1.7500    0.0000 H   0  0  0  0  0  0  0  0  0  0  0  0
    3.7320   -2.5600    0.0000 H   0  0  0  0  0  0  0  0  0  0  0  0
    2.0000   -2.5600    0.0000 H   0  0  0  0  0  0  0  0  0  0  0  0
  1 11  1  0  0  0  0
  1 31  1  0  0  0  0
  2  3  1  0  0  0  0
  2  4  1  0  0  0  0
  2  5  1  0  0  0  0
  2  6  1  0  0  0  0
  3  7  1  0  0  0  0
  3 14  1  0  0  0  0
  3 15  1  0  0  0  0
  4  8  1  0  0  0  0
  4 16  1  0  0  0  0
  4 17  1  0  0  0  0
  5  9  2  0  0  0  0
  5 10  1  0  0  0  0
  6 18  1  0  0  0  0
  6 19  1  0  0  0  0
  6 20  1  0  0  0  0
  7 21  1  0  0  0  0
  7 22  1  0  0  0  0
  7 23  1  0  0  0  0
  8 24  1  0  0  0  0
  8 25  1  0  0  0  0
  8 26  1  0  0  0  0
  9 11  1  0  0  0  0
  9 27  1  0  0  0  0
 10 12  2  0  0  0  0
 10 28  1  0  0  0  0
 11 13  2  0  0  0  0
 12 13  1  0  0  0  0
 12 29  1  0  0  0  0
 13 30  1  0  0  0  0
M  CHG  1   2   1
M  END
> <PUBCHEM_COMPOUND_CID>
14326

> <PUBCHEM_COMPOUND_CANONICALIZED>
1

> <PUBCHEM_CACTVS_COMPLEXITY>
154

> <PUBCHEM_CACTVS_HBOND_ACCEPTOR>
1

> <PUBCHEM_CACTVS_HBOND_DONOR>
1

> <PUBCHEM_CACTVS_ROTATABLE_BOND>
3

> <PUBCHEM_CACTVS_SUBSKEYS>
AAADceByIAAAAAAAAAAAAAAAAAAAAAAAAAAwAAAAAAAAAAABAAAAHgAACAAACAzBkAQyxoMAAgCAACRCQACCAAAhIgAIiAAObIgIJiLCkZOEcAhmwBnI2AeQUAMAAAAAAgAAAAAAAAAEAAAAAAAAAAAAAA==

> <PUBCHEM_IUPAC_OPENEYE_NAME>
diethyl-(3-hydroxyphenyl)-methyl-ammonium

> <PUBCHEM_IUPAC_CAS_NAME>
diethyl-(3-hydroxyphenyl)-methylammonium

> <PUBCHEM_IUPAC_NAME>
diethyl-(3-hydroxyphenyl)-methylazanium

> <PUBCHEM_IUPAC_SYSTEMATIC_NAME>
diethyl-(3-hydroxyphenyl)-methyl-azanium

> <PUBCHEM_IUPAC_TRADITIONAL_NAME>
diethyl-(3-hydroxyphenyl)-methyl-ammonium

> <PUBCHEM_IUPAC_INCHI>
InChI=1S/C11H17NO/c1-4-12(3,5-2)10-7-6-8-11(13)9-10/h6-9H,4-5H2,1-3H3/p+1

> <PUBCHEM_IUPAC_INCHIKEY>
XEJPEVHUDPMVHQ-UHFFFAOYSA-O

> <PUBCHEM_XLOGP3_AA>
2.2

> <PUBCHEM_EXACT_MASS>
180.138839

> <PUBCHEM_MOLECULAR_FORMULA>
C11H18NO+

> <PUBCHEM_MOLECULAR_WEIGHT>
180.26672

> <PUBCHEM_OPENEYE_CAN_SMILES>
CC[N+](C)(CC)C1=CC(=CC=C1)O

> <PUBCHEM_OPENEYE_ISO_SMILES>
CC[N+](C)(CC)C1=CC(=CC=C1)O

> <PUBCHEM_CACTVS_TPSA>
20.2

> <PUBCHEM_MONOISOTOPIC_WEIGHT>
180.138839

> <PUBCHEM_TOTAL_CHARGE>
1

> <PUBCHEM_HEAVY_ATOM_COUNT>
13

> <PUBCHEM_ATOM_DEF_STEREO_COUNT>
0

> <PUBCHEM_ATOM_UDEF_STEREO_COUNT>
0

> <PUBCHEM_BOND_DEF_STEREO_COUNT>
0

> <PUBCHEM_BOND_UDEF_STEREO_COUNT>
0

> <PUBCHEM_ISOTOPIC_ATOM_COUNT>
0

> <PUBCHEM_COMPONENT_COUNT>
1

> <PUBCHEM_CACTVS_TAUTO_COUNT>
3

> <PUBCHEM_COORDINATE_TYPE>
1
5
255

> <PUBCHEM_BONDANNOTATIONS>
10  12  8
11  13  8
12  13  8
5  10  8
5  9  8
9  11  8

$$$$

