47205242
  -OEChem-06241222582D

 39 41  0     0  0  0  0  0  0999 V2000
    6.1808    1.1874    0.0000 O   0  0  0  0  0  0  0  0  0  0  0  0
    5.3147   -0.3126    0.0000 N   0  0  0  0  0  0  0  0  0  0  0  0
    3.4782   -1.3072    0.0000 N   0  0  0  0  0  0  0  0  0  0  0  0
    2.5000   -1.5151    0.0000 N   0  0  0  0  0  0  0  0  0  0  0  0
   11.4449    0.1665    0.0000 C   0  0  0  0  0  0  0  0  0  0  0  0
   11.4449    1.2082    0.0000 C   0  0  0  0  0  0  0  0  0  0  0  0
   10.5388   -0.3473    0.0000 C   0  0  0  0  0  0  0  0  0  0  0  0
   10.5388    1.7220    0.0000 C   0  0  0  0  0  0  0  0  0  0  0  0
    9.6448    0.1874    0.0000 C   0  0  0  0  0  0  0  0  0  0  0  0
    9.6448    1.1874    0.0000 C   0  0  0  0  0  0  0  0  0  0  0  0
    8.7788   -0.3126    0.0000 C   0  0  0  0  0  0  0  0  0  0  0  0
    8.7788    1.6874    0.0000 C   0  0  0  0  0  0  0  0  0  0  0  0
    7.9128    0.1874    0.0000 C   0  0  0  0  0  0  0  0  0  0  0  0
    7.9128    1.1874    0.0000 C   0  0  0  0  0  0  0  0  0  0  0  0
    7.0468   -0.3126    0.0000 C   0  0  0  0  0  0  0  0  0  0  0  0
    6.1808    0.1874    0.0000 C   0  0  0  0  0  0  0  0  0  0  0  0
    4.4487    0.1874    0.0000 C   0  0  0  0  0  0  0  0  0  0  0  0
    3.5827   -0.3126    0.0000 C   0  0  0  0  0  0  0  0  0  0  0  0
    2.6691    0.0941    0.0000 C   0  0  0  0  0  0  0  0  0  0  0  0
    2.0000   -0.6490    0.0000 C   0  0  0  0  0  0  0  0  0  0  0  0
   11.6539   -0.4171    0.0000 H   0  0  0  0  0  0  0  0  0  0  0  0
   12.0557    0.2726    0.0000 H   0  0  0  0  0  0  0  0  0  0  0  0
   12.0557    1.1021    0.0000 H   0  0  0  0  0  0  0  0  0  0  0  0
   11.6539    1.7919    0.0000 H   0  0  0  0  0  0  0  0  0  0  0  0
   10.1342   -0.8171    0.0000 H   0  0  0  0  0  0  0  0  0  0  0  0
   10.9324   -0.8263    0.0000 H   0  0  0  0  0  0  0  0  0  0  0  0
   10.9324    2.2010    0.0000 H   0  0  0  0  0  0  0  0  0  0  0  0
   10.1342    2.1918    0.0000 H   0  0  0  0  0  0  0  0  0  0  0  0
    8.7788   -0.9326    0.0000 H   0  0  0  0  0  0  0  0  0  0  0  0
    8.7788    2.3074    0.0000 H   0  0  0  0  0  0  0  0  0  0  0  0
    7.3759    1.4974    0.0000 H   0  0  0  0  0  0  0  0  0  0  0  0
    6.6482   -0.7876    0.0000 H   0  0  0  0  0  0  0  0  0  0  0  0
    7.4453   -0.7876    0.0000 H   0  0  0  0  0  0  0  0  0  0  0  0
    5.3147   -0.9326    0.0000 H   0  0  0  0  0  0  0  0  0  0  0  0
    4.8472    0.6623    0.0000 H   0  0  0  0  0  0  0  0  0  0  0  0
    4.0502    0.6623    0.0000 H   0  0  0  0  0  0  0  0  0  0  0  0
    2.5402    0.7005    0.0000 H   0  0  0  0  0  0  0  0  0  0  0  0
    3.9389   -1.7220    0.0000 H   0  0  0  0  0  0  0  0  0  0  0  0
    1.3834   -0.5842    0.0000 H   0  0  0  0  0  0  0  0  0  0  0  0
  1 16  2  0  0  0  0
  2 16  1  0  0  0  0
  2 17  1  0  0  0  0
  2 34  1  0  0  0  0
  3  4  1  0  0  0  0
  3 18  1  0  0  0  0
  3 38  1  0  0  0  0
  4 20  2  0  0  0  0
  5  6  1  0  0  0  0
  5  7  1  0  0  0  0
  5 21  1  0  0  0  0
  5 22  1  0  0  0  0
  6  8  1  0  0  0  0
  6 23  1  0  0  0  0
  6 24  1  0  0  0  0
  7  9  1  0  0  0  0
  7 25  1  0  0  0  0
  7 26  1  0  0  0  0
  8 10  1  0  0  0  0
  8 27  1  0  0  0  0
  8 28  1  0  0  0  0
  9 10  2  0  0  0  0
  9 11  1  0  0  0  0
 10 12  1  0  0  0  0
 11 13  2  0  0  0  0
 11 29  1  0  0  0  0
 12 14  2  0  0  0  0
 12 30  1  0  0  0  0
 13 14  1  0  0  0  0
 13 15  1  0  0  0  0
 14 31  1  0  0  0  0
 15 16  1  0  0  0  0
 15 32  1  0  0  0  0
 15 33  1  0  0  0  0
 17 18  1  0  0  0  0
 17 35  1  0  0  0  0
 17 36  1  0  0  0  0
 18 19  2  0  0  0  0
 19 20  1  0  0  0  0
 19 37  1  0  0  0  0
 20 39  1  0  0  0  0
M  END
> <PUBCHEM_COMPOUND_CID>
47205242

> <PUBCHEM_COMPOUND_CANONICALIZED>
1

> <PUBCHEM_CACTVS_COMPLEXITY>
334

> <PUBCHEM_CACTVS_HBOND_ACCEPTOR>
2

> <PUBCHEM_CACTVS_HBOND_DONOR>
2

> <PUBCHEM_CACTVS_ROTATABLE_BOND>
4

> <PUBCHEM_CACTVS_SUBSKEYS>
AAADceB7IAAAAAAAAAAAAAAAAAAAAWAAAAAwYAAAAAAAAADBwAAAHgAYAAAADAjBngQ8gJLjAACqAzV3UACSBAAgggAYuaE4ZJgIYLKA1dGUpAhgngCIyAcYiMCOwAACAAAQAACAAAQAACAAAAAAAAAAAA==

> <PUBCHEM_IUPAC_OPENEYE_NAME>
N-(1H-pyrazol-5-ylmethyl)-2-tetralin-6-yl-acetamide

> <PUBCHEM_IUPAC_CAS_NAME>
N-(1H-pyrazol-5-ylmethyl)-2-(5,6,7,8-tetrahydronaphthalen-2-yl)acetamide

> <PUBCHEM_IUPAC_NAME>
N-(1H-pyrazol-5-ylmethyl)-2-(5,6,7,8-tetrahydronaphthalen-2-yl)acetamide

> <PUBCHEM_IUPAC_SYSTEMATIC_NAME>
N-(1H-pyrazol-5-ylmethyl)-2-(5,6,7,8-tetrahydronaphthalen-2-yl)ethanamide

> <PUBCHEM_IUPAC_TRADITIONAL_NAME>
N-(1H-pyrazol-5-ylmethyl)-2-tetralin-6-yl-acetamide

> <PUBCHEM_IUPAC_INCHI>
InChI=1S/C16H19N3O/c20-16(17-11-15-7-8-18-19-15)10-12-5-6-13-3-1-2-4-14(13)9-12/h5-9H,1-4,10-11H2,(H,17,20)(H,18,19)

> <PUBCHEM_IUPAC_INCHIKEY>
OGUFHFURICFJFM-UHFFFAOYSA-N

> <PUBCHEM_XLOGP3_AA>
2.3

> <PUBCHEM_EXACT_MASS>
269.152812

> <PUBCHEM_MOLECULAR_FORMULA>
C16H19N3O

> <PUBCHEM_MOLECULAR_WEIGHT>
269.34156

> <PUBCHEM_OPENEYE_CAN_SMILES>
C1CCC2=C(C1)C=CC(=C2)CC(=O)NCC3=CC=NN3

> <PUBCHEM_OPENEYE_ISO_SMILES>
C1CCC2=C(C1)C=CC(=C2)CC(=O)NCC3=CC=NN3

> <PUBCHEM_CACTVS_TPSA>
57.8

> <PUBCHEM_MONOISOTOPIC_WEIGHT>
269.152812

> <PUBCHEM_TOTAL_CHARGE>
0

> <PUBCHEM_HEAVY_ATOM_COUNT>
20

> <PUBCHEM_ATOM_DEF_STEREO_COUNT>
0

> <PUBCHEM_ATOM_UDEF_STEREO_COUNT>
0

> <PUBCHEM_BOND_DEF_STEREO_COUNT>
0

> <PUBCHEM_BOND_UDEF_STEREO_COUNT>
0

> <PUBCHEM_ISOTOPIC_ATOM_COUNT>
0

> <PUBCHEM_COMPONENT_COUNT>
1

> <PUBCHEM_CACTVS_TAUTO_COUNT>
4

> <PUBCHEM_COORDINATE_TYPE>
1
5
255

> <PUBCHEM_BONDANNOTATIONS>
10  12  8
11  13  8
12  14  8
13  14  8
18  19  8
19  20  8
3  18  8
3  4  8
4  20  8
9  10  8
9  11  8

$$$$

