6071
  -OEChem-06261201053D

 47 50  0     1  0  0  0  0  0999 V2000
   -2.5453    1.3205   -1.0891 O   0  0  0  0  0  0  0  0  0  0  0  0
   -6.2187   -1.1523   -0.5050 O   0  0  0  0  0  0  0  0  0  0  0  0
   -0.2814   -2.2796    0.1130 N   0  0  1  0  0  0  0  0  0  0  0  0
    5.3413   -0.1866    0.1282 N   0  0  0  0  0  0  0  0  0  0  0  0
   -3.9981    0.3007    0.4170 N   0  0  0  0  0  0  0  0  0  0  0  0
    0.9139   -1.4760   -0.2691 C   0  0  1  0  0  0  0  0  0  0  0  0
    0.7550    0.0416    0.0471 C   0  0  0  0  0  0  0  0  0  0  0  0
    2.1978   -2.1103    0.3841 C   0  0  0  0  0  0  0  0  0  0  0  0
   -1.6742   -0.2746    0.4581 C   0  0  1  0  0  0  0  0  0  0  0  0
   -1.5219   -1.6012   -0.2900 C   0  0  0  0  0  0  0  0  0  0  0  0
    3.3679   -1.2020    0.2524 C   0  0  0  0  0  0  0  0  0  0  0  0
    1.9634    0.8916   -0.0436 C   0  0  0  0  0  0  0  0  0  0  0  0
    3.1644    0.1802    0.0613 C   0  0  0  0  0  0  0  0  0  0  0  0
   -0.4310    0.5592    0.4118 C   0  0  0  0  0  0  0  0  0  0  0  0
    4.3971    0.8074   -0.0113 C   0  0  0  0  0  0  0  0  0  0  0  0
   -0.2545   -3.6261   -0.4679 C   0  0  0  0  0  0  0  0  0  0  0  0
    4.7266   -1.4094    0.2913 C   0  0  0  0  0  0  0  0  0  0  0  0
   -2.7671    0.5352   -0.1711 C   0  0  0  0  0  0  0  0  0  0  0  0
    2.0542    2.2768   -0.2268 C   0  0  0  0  0  0  0  0  0  0  0  0
    4.5053    2.1870   -0.1925 C   0  0  0  0  0  0  0  0  0  0  0  0
    3.3049    2.9070   -0.2984 C   0  0  0  0  0  0  0  0  0  0  0  0
   -5.2102    0.9732    0.0088 C   0  0  1  0  0  0  0  0  0  0  0  0
   -6.4202    0.0629    0.2076 C   0  0  0  0  0  0  0  0  0  0  0  0
   -5.3691    2.2748    0.7840 C   0  0  0  0  0  0  0  0  0  0  0  0
    1.0382   -1.5298   -1.3626 H   0  0  0  0  0  0  0  0  0  0  0  0
    2.4372   -3.0676   -0.0922 H   0  0  0  0  0  0  0  0  0  0  0  0
    2.0205   -2.3004    1.4507 H   0  0  0  0  0  0  0  0  0  0  0  0
   -1.9068   -0.4622    1.5145 H   0  0  0  0  0  0  0  0  0  0  0  0
   -2.3907   -2.2273   -0.0462 H   0  0  0  0  0  0  0  0  0  0  0  0
   -1.5464   -1.4484   -1.3787 H   0  0  0  0  0  0  0  0  0  0  0  0
   -0.5187    1.6044    0.6986 H   0  0  0  0  0  0  0  0  0  0  0  0
   -0.1830   -3.6022   -1.5612 H   0  0  0  0  0  0  0  0  0  0  0  0
   -1.1611   -4.1800   -0.1978 H   0  0  0  0  0  0  0  0  0  0  0  0
    0.5780   -4.2166   -0.0747 H   0  0  0  0  0  0  0  0  0  0  0  0
    5.3171   -2.3052    0.4223 H   0  0  0  0  0  0  0  0  0  0  0  0
    1.1593    2.8854   -0.3273 H   0  0  0  0  0  0  0  0  0  0  0  0
    6.3413   -0.0410    0.1177 H   0  0  0  0  0  0  0  0  0  0  0  0
    5.4673    2.6834   -0.2503 H   0  0  0  0  0  0  0  0  0  0  0  0
    3.3471    3.9844   -0.4433 H   0  0  0  0  0  0  0  0  0  0  0  0
   -4.0556   -0.3358    1.2068 H   0  0  0  0  0  0  0  0  0  0  0  0
   -5.1133    1.2058   -1.0588 H   0  0  0  0  0  0  0  0  0  0  0  0
   -6.5579   -0.1920    1.2637 H   0  0  0  0  0  0  0  0  0  0  0  0
   -7.3398    0.5332   -0.1553 H   0  0  0  0  0  0  0  0  0  0  0  0
   -4.5134    2.9381    0.6168 H   0  0  0  0  0  0  0  0  0  0  0  0
   -5.4355    2.0900    1.8621 H   0  0  0  0  0  0  0  0  0  0  0  0
   -6.2738    2.8069    0.4723 H   0  0  0  0  0  0  0  0  0  0  0  0
   -6.1079   -0.9258   -1.4442 H   0  0  0  0  0  0  0  0  0  0  0  0
  1 18  2  0  0  0  0
  2 23  1  0  0  0  0
  2 47  1  0  0  0  0
  3  6  1  0  0  0  0
  3 10  1  0  0  0  0
  3 16  1  0  0  0  0
  4 15  1  0  0  0  0
  4 17  1  0  0  0  0
  4 37  1  0  0  0  0
  5 18  1  0  0  0  0
  5 22  1  0  0  0  0
  5 40  1  0  0  0  0
  6  7  1  0  0  0  0
  6  8  1  0  0  0  0
  6 25  1  0  0  0  0
  7 12  1  0  0  0  0
  7 14  2  0  0  0  0
  8 11  1  0  0  0  0
  8 26  1  0  0  0  0
  8 27  1  0  0  0  0
  9 10  1  0  0  0  0
  9 14  1  0  0  0  0
  9 18  1  0  0  0  0
  9 28  1  0  0  0  0
 10 29  1  0  0  0  0
 10 30  1  0  0  0  0
 11 13  1  0  0  0  0
 11 17  2  0  0  0  0
 12 13  2  0  0  0  0
 12 19  1  0  0  0  0
 13 15  1  0  0  0  0
 14 31  1  0  0  0  0
 15 20  2  0  0  0  0
 16 32  1  0  0  0  0
 16 33  1  0  0  0  0
 16 34  1  0  0  0  0
 17 35  1  0  0  0  0
 19 21  2  0  0  0  0
 19 36  1  0  0  0  0
 20 21  1  0  0  0  0
 20 38  1  0  0  0  0
 21 39  1  0  0  0  0
 22 23  1  0  0  0  0
 22 24  1  0  0  0  0
 22 41  1  0  0  0  0
 23 42  1  0  0  0  0
 23 43  1  0  0  0  0
 24 44  1  0  0  0  0
 24 45  1  0  0  0  0
 24 46  1  0  0  0  0
M  END
> <PUBCHEM_COMPOUND_CID>
6071

> <PUBCHEM_CONFORMER_RMSD>
0.8

> <PUBCHEM_CONFORMER_DIVERSEORDER>
1
8
21
11
13
15
9
10
17
20
12
18
2
4
6
19
14
5
16
7
3

> <PUBCHEM_MMFF94_PARTIAL_CHARGES>
30
1 -0.57
10 0.27
11 -0.18
12 0.03
14 -0.29
15 -0.15
16 0.27
17 -0.3
18 0.57
19 -0.15
2 -0.68
20 -0.15
21 -0.15
22 0.3
23 0.28
3 -0.81
31 0.15
35 0.15
36 0.15
37 0.27
38 0.15
39 0.15
4 0.03
40 0.37
47 0.4
5 -0.73
6 0.41
7 -0.17
8 0.18
9 0.2

> <PUBCHEM_EFFECTIVE_ROTOR_COUNT>
4.8

> <PUBCHEM_PHARMACOPHORE_FEATURES>
11
1 1 acceptor
1 2 acceptor
1 2 donor
1 3 cation
1 4 cation
1 4 donor
1 5 donor
5 4 11 13 15 17 rings
6 12 13 15 19 20 21 rings
6 3 6 7 9 10 14 rings
6 6 7 8 11 12 13 rings

> <PUBCHEM_HEAVY_ATOM_COUNT>
24

> <PUBCHEM_ATOM_DEF_STEREO_COUNT>
3

> <PUBCHEM_ATOM_UDEF_STEREO_COUNT>
0

> <PUBCHEM_BOND_DEF_STEREO_COUNT>
0

> <PUBCHEM_BOND_UDEF_STEREO_COUNT>
0

> <PUBCHEM_ISOTOPIC_ATOM_COUNT>
0

> <PUBCHEM_COMPONENT_COUNT>
1

> <PUBCHEM_CACTVS_TAUTO_COUNT>
2

> <PUBCHEM_CONFORMER_ID>
000017B700000001

> <PUBCHEM_MMFF94_ENERGY>
53.4607

> <PUBCHEM_FEATURE_SELFOVERLAP>
56.067

> <PUBCHEM_SHAPE_FINGERPRINT>
10411042 1 17690561209781043386
10595046 47 18408323268392425393
10763959 59 17704078403942805789
10967382 1 18411702114964017394
1100329 8 18410577275713909954
11578080 2 17243032150414151130
11796584 16 5184057129010896173
12107183 9 17688023533033395161
12236239 1 17967534601176649073
12403259 415 18060425741421879429
12592029 89 18341613771240902034
12788726 201 17676755544103117960
12838862 33 18339096929781383256
13140716 1 18340493249408132162
13583140 156 17917703608734609755
13785724 45 17760928841482913666
13836976 161 18410853265632086302
14251764 18 18343305860128661240
14464042 87 17967526912953555505
14528608 73 18409446981949774957
14790565 3 18408882923863064677
15196674 1 18410855421600251578
16728300 4 17270345402507872410
17844677 252 18411130377333883473
18681886 176 18334300881013355474
20028762 73 18260551151217795007
20157964 124 18411700998029862357
20645477 70 18410291441070840182
21033648 144 18201164273738830597
21033648 29 16916798391809648357
21033650 10 16589681592065962448
21197605 99 18339355250373474195
21236236 1 18336828577179771255
21267235 1 18339076099084281674
21307412 95 17824515635512135046
21315763 129 18340769342421938693
21709351 56 18338523036082181693
23227448 37 18338517443417778662
23558518 356 17840870677300535274
23559900 14 18187928331990543760
335352 9 18411135832232084278
34934 24 18338802217746777064
350125 39 18411138013400159127
3680242 22 18340769368001657138
4073 2 18059848446884045731
4325135 7 18334016095181316351
474 4 18336825381138021155
5104073 3 18343023250863840784
513532 50 18041267838593757940
7832392 63 18338802204835494814
8272917 22 18335416936575534990
9999458 23 18202562882752420374

> <PUBCHEM_SHAPE_MULTIPOLES>
467.23
13.14
3.18
0.73
16.49
0.85
-0.02
-4.89
0.75
-1.54
-0.32
0.25
-0.05
-0.91

> <PUBCHEM_SHAPE_SELFOVERLAP>
1020.213

> <PUBCHEM_SHAPE_VOLUME>
254.4

> <PUBCHEM_COORDINATE_TYPE>
2
5
10

$$$$

