17396038
  -OEChem-06241222542D

 54 58  0     1  0  0  0  0  0999 V2000
    8.4268    0.4603    0.0000 S   0  0  0  0  0  0  0  0  0  0  0  0
    2.0000    0.8786    0.0000 F   0  0  0  0  0  0  0  0  0  0  0  0
    8.1606   -0.8858    0.0000 O   0  0  0  0  0  0  0  0  0  0  0  0
   13.6509    2.4950    0.0000 O   0  0  0  0  0  0  0  0  0  0  0  0
   10.1588   -0.5397    0.0000 O   0  0  0  0  0  0  0  0  0  0  0  0
   15.4210    0.4362    0.0000 O   0  0  0  0  0  0  0  0  0  0  0  0
    6.6472    0.5536    0.0000 N   0  0  0  0  0  0  0  0  0  0  0  0
    6.4781    2.1627    0.0000 N   0  0  0  0  0  0  0  0  0  0  0  0
    7.4562    1.9548    0.0000 N   0  0  0  0  0  0  0  0  0  0  0  0
   13.6509    0.4256    0.0000 N   0  0  0  0  0  0  0  0  0  0  0  0
    7.1824   -1.0937    0.0000 C   0  0  3  0  0  0  0  0  0  0  0  0
    7.0779   -2.0882    0.0000 C   0  0  0  0  0  0  0  0  0  0  0  0
    7.9915   -2.4950    0.0000 C   0  0  0  0  0  0  0  0  0  0  0  0
    6.4393   -0.4246    0.0000 C   0  0  0  0  0  0  0  0  0  0  0  0
    8.6606   -1.7518    0.0000 C   0  0  0  0  0  0  0  0  0  0  0  0
    5.9781    1.2967    0.0000 C   0  0  0  0  0  0  0  0  0  0  0  0
    7.5608    0.9603    0.0000 C   0  0  0  0  0  0  0  0  0  0  0  0
    4.9836    1.1922    0.0000 C   0  0  0  0  0  0  0  0  0  0  0  0
    9.2928    0.9603    0.0000 C   0  0  0  0  0  0  0  0  0  0  0  0
    4.3958    2.0012    0.0000 C   0  0  0  0  0  0  0  0  0  0  0  0
    4.5768    0.2786    0.0000 C   0  0  0  0  0  0  0  0  0  0  0  0
   10.1588    0.4603    0.0000 C   0  0  0  0  0  0  0  0  0  0  0  0
   11.0249    0.9603    0.0000 C   0  0  0  0  0  0  0  0  0  0  0  0
   12.7569    0.9603    0.0000 C   0  0  0  0  0  0  0  0  0  0  0  0
   11.8909    0.4603    0.0000 C   0  0  0  0  0  0  0  0  0  0  0  0
    3.4013    1.8967    0.0000 C   0  0  0  0  0  0  0  0  0  0  0  0
    3.5823    0.1741    0.0000 C   0  0  0  0  0  0  0  0  0  0  0  0
   12.7569    1.9603    0.0000 C   0  0  0  0  0  0  0  0  0  0  0  0
   11.0249    1.9603    0.0000 C   0  0  0  0  0  0  0  0  0  0  0  0
    2.9945    0.9831    0.0000 C   0  0  0  0  0  0  0  0  0  0  0  0
   11.8909    2.4603    0.0000 C   0  0  0  0  0  0  0  0  0  0  0  0
   14.5569    1.9811    0.0000 C   0  0  0  0  0  0  0  0  0  0  0  0
   14.5569    0.9395    0.0000 C   0  0  0  0  0  0  0  0  0  0  0  0
    7.3429   -0.4948    0.0000 H   0  0  0  0  0  0  0  0  0  0  0  0
    6.4715   -1.9593    0.0000 H   0  0  0  0  0  0  0  0  0  0  0  0
    6.8863   -2.6779    0.0000 H   0  0  0  0  0  0  0  0  0  0  0  0
    7.6815   -3.0319    0.0000 H   0  0  0  0  0  0  0  0  0  0  0  0
    8.4931   -2.8594    0.0000 H   0  0  0  0  0  0  0  0  0  0  0  0
    5.8644   -0.1923    0.0000 H   0  0  0  0  0  0  0  0  0  0  0  0
    6.1108   -0.9504    0.0000 H   0  0  0  0  0  0  0  0  0  0  0  0
    9.0755   -2.2126    0.0000 H   0  0  0  0  0  0  0  0  0  0  0  0
    9.1622   -1.3874    0.0000 H   0  0  0  0  0  0  0  0  0  0  0  0
    9.6913    1.4352    0.0000 H   0  0  0  0  0  0  0  0  0  0  0  0
    8.8943    1.4352    0.0000 H   0  0  0  0  0  0  0  0  0  0  0  0
    4.6480    2.5676    0.0000 H   0  0  0  0  0  0  0  0  0  0  0  0
    4.9413   -0.2230    0.0000 H   0  0  0  0  0  0  0  0  0  0  0  0
   11.8909   -0.1597    0.0000 H   0  0  0  0  0  0  0  0  0  0  0  0
    3.0368    2.3983    0.0000 H   0  0  0  0  0  0  0  0  0  0  0  0
    3.3301   -0.3923    0.0000 H   0  0  0  0  0  0  0  0  0  0  0  0
   10.4879    2.2703    0.0000 H   0  0  0  0  0  0  0  0  0  0  0  0
   11.8909    3.0803    0.0000 H   0  0  0  0  0  0  0  0  0  0  0  0
   13.6437   -0.1943    0.0000 H   0  0  0  0  0  0  0  0  0  0  0  0
   15.1678    1.8750    0.0000 H   0  0  0  0  0  0  0  0  0  0  0  0
   14.7660    2.5648    0.0000 H   0  0  0  0  0  0  0  0  0  0  0  0
  1 17  1  0  0  0  0
  1 19  1  0  0  0  0
  2 30  1  0  0  0  0
  3 11  1  0  0  0  0
  3 15  1  0  0  0  0
  4 28  1  0  0  0  0
  4 32  1  0  0  0  0
  5 22  2  0  0  0  0
  6 33  2  0  0  0  0
  7 14  1  0  0  0  0
  7 16  1  0  0  0  0
  7 17  1  0  0  0  0
  8  9  1  0  0  0  0
  8 16  2  0  0  0  0
  9 17  2  0  0  0  0
 10 24  1  0  0  0  0
 10 33  1  0  0  0  0
 10 52  1  0  0  0  0
 11 12  1  0  0  0  0
 11 14  1  0  0  0  0
 11 34  1  0  0  0  0
 12 13  1  0  0  0  0
 12 35  1  0  0  0  0
 12 36  1  0  0  0  0
 13 15  1  0  0  0  0
 13 37  1  0  0  0  0
 13 38  1  0  0  0  0
 14 39  1  0  0  0  0
 14 40  1  0  0  0  0
 15 41  1  0  0  0  0
 15 42  1  0  0  0  0
 16 18  1  0  0  0  0
 18 20  2  0  0  0  0
 18 21  1  0  0  0  0
 19 22  1  0  0  0  0
 19 43  1  0  0  0  0
 19 44  1  0  0  0  0
 20 26  1  0  0  0  0
 20 45  1  0  0  0  0
 21 27  2  0  0  0  0
 21 46  1  0  0  0  0
 22 23  1  0  0  0  0
 23 25  2  0  0  0  0
 23 29  1  0  0  0  0
 24 25  1  0  0  0  0
 24 28  2  0  0  0  0
 25 47  1  0  0  0  0
 26 30  2  0  0  0  0
 26 48  1  0  0  0  0
 27 30  1  0  0  0  0
 27 49  1  0  0  0  0
 28 31  1  0  0  0  0
 29 31  2  0  0  0  0
 29 50  1  0  0  0  0
 31 51  1  0  0  0  0
 32 33  1  0  0  0  0
 32 53  1  0  0  0  0
 32 54  1  0  0  0  0
M  END
> <PUBCHEM_COMPOUND_CID>
17396038

> <PUBCHEM_COMPOUND_CANONICALIZED>
1

> <PUBCHEM_CACTVS_COMPLEXITY>
710

> <PUBCHEM_CACTVS_HBOND_ACCEPTOR>
8

> <PUBCHEM_CACTVS_HBOND_DONOR>
1

> <PUBCHEM_CACTVS_ROTATABLE_BOND>
7

> <PUBCHEM_CACTVS_SUBSKEYS>
AAADceB7uQBAAAAAAAAAAAAAAAAAAWJAAAA8YIAAAAAAAACx0AAAHwQYAAAADBzl2w6x1ofMFAiqAqdydAKS2AtlIrAdyCFvbNiOLrLkvZ+HOSjk3BPY6Yec3ILOIAAAQAAAEABAAACAAAAgAAAAAAAAAA==

> <PUBCHEM_IUPAC_OPENEYE_NAME>
6-[2-[[5-(4-fluorophenyl)-4-(tetrahydrofuran-2-ylmethyl)-1,2,4-triazol-3-yl]sulfanyl]acetyl]-4H-1,4-benzoxazin-3-one

> <PUBCHEM_IUPAC_CAS_NAME>
6-[2-[[5-(4-fluorophenyl)-4-(2-oxolanylmethyl)-1,2,4-triazol-3-yl]thio]-1-oxoethyl]-4H-1,4-benzoxazin-3-one

> <PUBCHEM_IUPAC_NAME>
6-[2-[[5-(4-fluorophenyl)-4-(oxolan-2-ylmethyl)-1,2,4-triazol-3-yl]sulfanyl]acetyl]-4H-1,4-benzoxazin-3-one

> <PUBCHEM_IUPAC_SYSTEMATIC_NAME>
6-[2-[[5-(4-fluorophenyl)-4-(oxolan-2-ylmethyl)-1,2,4-triazol-3-yl]sulfanyl]ethanoyl]-4H-1,4-benzoxazin-3-one

> <PUBCHEM_IUPAC_TRADITIONAL_NAME>
6-[2-[[5-(4-fluorophenyl)-4-(tetrahydrofurfuryl)-1,2,4-triazol-3-yl]thio]acetyl]-4H-1,4-benzoxazin-3-one

> <PUBCHEM_IUPAC_INCHI>
InChI=1S/C23H21FN4O4S/c24-16-6-3-14(4-7-16)22-26-27-23(28(22)11-17-2-1-9-31-17)33-13-19(29)15-5-8-20-18(10-15)25-21(30)12-32-20/h3-8,10,17H,1-2,9,11-13H2,(H,25,30)

> <PUBCHEM_IUPAC_INCHIKEY>
VEAZNPQZKFSDGC-UHFFFAOYSA-N

> <PUBCHEM_XLOGP3_AA>
2.7

> <PUBCHEM_EXACT_MASS>
468.126754

> <PUBCHEM_MOLECULAR_FORMULA>
C23H21FN4O4S

> <PUBCHEM_MOLECULAR_WEIGHT>
468.500643

> <PUBCHEM_OPENEYE_CAN_SMILES>
C1CC(OC1)CN2C(=NN=C2SCC(=O)C3=CC4=C(C=C3)OCC(=O)N4)C5=CC=C(C=C5)F

> <PUBCHEM_OPENEYE_ISO_SMILES>
C1CC(OC1)CN2C(=NN=C2SCC(=O)C3=CC4=C(C=C3)OCC(=O)N4)C5=CC=C(C=C5)F

> <PUBCHEM_CACTVS_TPSA>
121

> <PUBCHEM_MONOISOTOPIC_WEIGHT>
468.126754

> <PUBCHEM_TOTAL_CHARGE>
0

> <PUBCHEM_HEAVY_ATOM_COUNT>
33

> <PUBCHEM_ATOM_DEF_STEREO_COUNT>
0

> <PUBCHEM_ATOM_UDEF_STEREO_COUNT>
1

> <PUBCHEM_BOND_DEF_STEREO_COUNT>
0

> <PUBCHEM_BOND_UDEF_STEREO_COUNT>
0

> <PUBCHEM_ISOTOPIC_ATOM_COUNT>
0

> <PUBCHEM_COMPONENT_COUNT>
1

> <PUBCHEM_CACTVS_TAUTO_COUNT>
6

> <PUBCHEM_COORDINATE_TYPE>
1
5
255

> <PUBCHEM_BONDANNOTATIONS>
11  14  3
18  20  8
18  21  8
20  26  8
21  27  8
23  25  8
23  29  8
24  25  8
24  28  8
26  30  8
27  30  8
28  31  8
29  31  8
7  16  8
7  17  8
8  16  8
8  9  8
9  17  8

$$$$

