47205729
  -OEChem-06241223002D

 34 35  0     0  0  0  0  0  0999 V2000
    6.3301   -3.6830    0.0000 Cl  0  0  0  0  0  0  0  0  0  0  0  0
    5.4641    2.8170    0.0000 O   0  0  0  0  0  0  0  0  0  0  0  0
    6.3301   -0.6830    0.0000 O   0  0  0  0  0  0  0  0  0  0  0  0
    2.8660   -1.6830    0.0000 O   0  0  0  0  0  0  0  0  0  0  0  0
    6.3301    1.3170    0.0000 N   0  0  0  0  0  0  0  0  0  0  0  0
    4.5981   -0.6830    0.0000 N   0  0  0  0  0  0  0  0  0  0  0  0
    7.1962    2.8170    0.0000 C   0  0  0  0  0  0  0  0  0  0  0  0
    7.6962    3.6830    0.0000 C   0  0  0  0  0  0  0  0  0  0  0  0
    8.1962    2.8170    0.0000 C   0  0  0  0  0  0  0  0  0  0  0  0
    6.3301    2.3170    0.0000 C   0  0  0  0  0  0  0  0  0  0  0  0
    5.4641    0.8170    0.0000 C   0  0  0  0  0  0  0  0  0  0  0  0
    5.4641   -0.1830    0.0000 C   0  0  0  0  0  0  0  0  0  0  0  0
    4.5981   -1.6830    0.0000 C   0  0  0  0  0  0  0  0  0  0  0  0
    3.7320   -2.1830    0.0000 C   0  0  0  0  0  0  0  0  0  0  0  0
    5.4641   -2.1830    0.0000 C   0  0  0  0  0  0  0  0  0  0  0  0
    3.7320   -3.1830    0.0000 C   0  0  0  0  0  0  0  0  0  0  0  0
    5.4641   -3.1830    0.0000 C   0  0  0  0  0  0  0  0  0  0  0  0
    4.5981   -3.6830    0.0000 C   0  0  0  0  0  0  0  0  0  0  0  0
    2.0000   -2.1830    0.0000 C   0  0  0  0  0  0  0  0  0  0  0  0
    6.7578    3.2554    0.0000 H   0  0  0  0  0  0  0  0  0  0  0  0
    8.3038    2.2064    0.0000 H   0  0  0  0  0  0  0  0  0  0  0  0
    8.7788    3.0290    0.0000 H   0  0  0  0  0  0  0  0  0  0  0  0
    8.1711    4.0815    0.0000 H   0  0  0  0  0  0  0  0  0  0  0  0
    7.2212    4.0815    0.0000 H   0  0  0  0  0  0  0  0  0  0  0  0
    6.8671    1.0070    0.0000 H   0  0  0  0  0  0  0  0  0  0  0  0
    5.2520    1.3996    0.0000 H   0  0  0  0  0  0  0  0  0  0  0  0
    4.8535    0.7093    0.0000 H   0  0  0  0  0  0  0  0  0  0  0  0
    4.0611   -0.3730    0.0000 H   0  0  0  0  0  0  0  0  0  0  0  0
    6.0010   -1.8730    0.0000 H   0  0  0  0  0  0  0  0  0  0  0  0
    3.1951   -3.4930    0.0000 H   0  0  0  0  0  0  0  0  0  0  0  0
    4.5981   -4.3030    0.0000 H   0  0  0  0  0  0  0  0  0  0  0  0
    1.6900   -1.6461    0.0000 H   0  0  0  0  0  0  0  0  0  0  0  0
    1.4631   -2.4930    0.0000 H   0  0  0  0  0  0  0  0  0  0  0  0
    2.3100   -2.7200    0.0000 H   0  0  0  0  0  0  0  0  0  0  0  0
  1 17  1  0  0  0  0
  2 10  2  0  0  0  0
  3 12  2  0  0  0  0
  4 14  1  0  0  0  0
  4 19  1  0  0  0  0
  5 10  1  0  0  0  0
  5 11  1  0  0  0  0
  5 25  1  0  0  0  0
  6 12  1  0  0  0  0
  6 13  1  0  0  0  0
  6 28  1  0  0  0  0
  7  8  1  0  0  0  0
  7  9  1  0  0  0  0
  7 10  1  0  0  0  0
  7 20  1  0  0  0  0
  8  9  1  0  0  0  0
  8 23  1  0  0  0  0
  8 24  1  0  0  0  0
  9 21  1  0  0  0  0
  9 22  1  0  0  0  0
 11 12  1  0  0  0  0
 11 26  1  0  0  0  0
 11 27  1  0  0  0  0
 13 14  2  0  0  0  0
 13 15  1  0  0  0  0
 14 16  1  0  0  0  0
 15 17  2  0  0  0  0
 15 29  1  0  0  0  0
 16 18  2  0  0  0  0
 16 30  1  0  0  0  0
 17 18  1  0  0  0  0
 18 31  1  0  0  0  0
 19 32  1  0  0  0  0
 19 33  1  0  0  0  0
 19 34  1  0  0  0  0
M  END
> <PUBCHEM_COMPOUND_CID>
47205729

> <PUBCHEM_COMPOUND_CANONICALIZED>
1

> <PUBCHEM_CACTVS_COMPLEXITY>
347

> <PUBCHEM_CACTVS_HBOND_ACCEPTOR>
3

> <PUBCHEM_CACTVS_HBOND_DONOR>
2

> <PUBCHEM_CACTVS_ROTATABLE_BOND>
5

> <PUBCHEM_CACTVS_SUBSKEYS>
AAADccBzMAAEAAAAAAAAAAAAGAAAAAAAAAAwAAAAAAAAAAABAAAAHgIQAAAADQ7BkCYyxoLABACIACVSUACCCAAhJwAIiIGPbogOZjLFs7uVMChk1hHY6AeQQAAAACAAAAIAEAAAQAAABAAgAAAAAAAAAA==

> <PUBCHEM_IUPAC_OPENEYE_NAME>
N-[2-(5-chloro-2-methoxy-anilino)-2-oxo-ethyl]cyclopropanecarboxamide

> <PUBCHEM_IUPAC_CAS_NAME>
N-[2-(5-chloro-2-methoxyanilino)-2-oxoethyl]cyclopropanecarboxamide

> <PUBCHEM_IUPAC_NAME>
N-[2-(5-chloro-2-methoxyanilino)-2-oxoethyl]cyclopropanecarboxamide

> <PUBCHEM_IUPAC_SYSTEMATIC_NAME>
N-[2-[(5-chloranyl-2-methoxy-phenyl)amino]-2-oxidanylidene-ethyl]cyclopropanecarboxamide

> <PUBCHEM_IUPAC_TRADITIONAL_NAME>
N-[2-(5-chloro-2-methoxy-anilino)-2-keto-ethyl]cyclopropanecarboxamide

> <PUBCHEM_IUPAC_INCHI>
InChI=1S/C13H15ClN2O3/c1-19-11-5-4-9(14)6-10(11)16-12(17)7-15-13(18)8-2-3-8/h4-6,8H,2-3,7H2,1H3,(H,15,18)(H,16,17)

> <PUBCHEM_IUPAC_INCHIKEY>
YJWXGIUTFNKYMX-UHFFFAOYSA-N

> <PUBCHEM_XLOGP3_AA>
1.5

> <PUBCHEM_EXACT_MASS>
282.07712

> <PUBCHEM_MOLECULAR_FORMULA>
C13H15ClN2O3

> <PUBCHEM_MOLECULAR_WEIGHT>
282.7228

> <PUBCHEM_OPENEYE_CAN_SMILES>
COC1=C(C=C(C=C1)Cl)NC(=O)CNC(=O)C2CC2

> <PUBCHEM_OPENEYE_ISO_SMILES>
COC1=C(C=C(C=C1)Cl)NC(=O)CNC(=O)C2CC2

> <PUBCHEM_CACTVS_TPSA>
67.4

> <PUBCHEM_MONOISOTOPIC_WEIGHT>
282.07712

> <PUBCHEM_TOTAL_CHARGE>
0

> <PUBCHEM_HEAVY_ATOM_COUNT>
19

> <PUBCHEM_ATOM_DEF_STEREO_COUNT>
0

> <PUBCHEM_ATOM_UDEF_STEREO_COUNT>
0

> <PUBCHEM_BOND_DEF_STEREO_COUNT>
0

> <PUBCHEM_BOND_UDEF_STEREO_COUNT>
0

> <PUBCHEM_ISOTOPIC_ATOM_COUNT>
0

> <PUBCHEM_COMPONENT_COUNT>
1

> <PUBCHEM_CACTVS_TAUTO_COUNT>
6

> <PUBCHEM_COORDINATE_TYPE>
1
5
255

> <PUBCHEM_BONDANNOTATIONS>
13  14  8
13  15  8
14  16  8
15  17  8
16  18  8
17  18  8

$$$$

