47205083
  -OEChem-06241222582D

 34 35  0     0  0  0  0  0  0999 V2000
    2.8660   -0.2047    0.0000 O   0  0  0  0  0  0  0  0  0  0  0  0
    2.8660   -4.2047    0.0000 O   0  0  0  0  0  0  0  0  0  0  0  0
    2.8660    1.7953    0.0000 O   0  0  0  0  0  0  0  0  0  0  0  0
    4.5981    1.7953    0.0000 N   0  0  0  0  0  0  0  0  0  0  0  0
    5.5686    4.2898    0.0000 N   0  0  0  0  0  0  0  0  0  0  0  0
    6.5468    4.4977    0.0000 N   0  0  0  0  0  0  0  0  0  0  0  0
    4.5981    2.7953    0.0000 C   0  0  0  0  0  0  0  0  0  0  0  0
    5.4641    3.2953    0.0000 C   0  0  0  0  0  0  0  0  0  0  0  0
    3.7320    0.2953    0.0000 C   0  0  0  0  0  0  0  0  0  0  0  0
    3.7320    1.2953    0.0000 C   0  0  0  0  0  0  0  0  0  0  0  0
    2.8660   -1.2047    0.0000 C   0  0  0  0  0  0  0  0  0  0  0  0
    6.3776    2.8886    0.0000 C   0  0  0  0  0  0  0  0  0  0  0  0
    2.0000   -1.7047    0.0000 C   0  0  0  0  0  0  0  0  0  0  0  0
    3.7320   -1.7047    0.0000 C   0  0  0  0  0  0  0  0  0  0  0  0
    2.8660   -3.2047    0.0000 C   0  0  0  0  0  0  0  0  0  0  0  0
    2.0000   -2.7047    0.0000 C   0  0  0  0  0  0  0  0  0  0  0  0
    3.7320   -2.7047    0.0000 C   0  0  0  0  0  0  0  0  0  0  0  0
    7.0468    3.6317    0.0000 C   0  0  0  0  0  0  0  0  0  0  0  0
    2.0000   -4.7047    0.0000 C   0  0  0  0  0  0  0  0  0  0  0  0
    4.3860    3.3779    0.0000 H   0  0  0  0  0  0  0  0  0  0  0  0
    3.9875    2.6876    0.0000 H   0  0  0  0  0  0  0  0  0  0  0  0
    5.1350    1.4853    0.0000 H   0  0  0  0  0  0  0  0  0  0  0  0
    3.9441   -0.2873    0.0000 H   0  0  0  0  0  0  0  0  0  0  0  0
    4.3426    0.4030    0.0000 H   0  0  0  0  0  0  0  0  0  0  0  0
    6.5066    2.2821    0.0000 H   0  0  0  0  0  0  0  0  0  0  0  0
    5.1079    4.7047    0.0000 H   0  0  0  0  0  0  0  0  0  0  0  0
    1.4631   -1.3947    0.0000 H   0  0  0  0  0  0  0  0  0  0  0  0
    4.2690   -1.3947    0.0000 H   0  0  0  0  0  0  0  0  0  0  0  0
    1.4631   -3.0147    0.0000 H   0  0  0  0  0  0  0  0  0  0  0  0
    4.2690   -3.0147    0.0000 H   0  0  0  0  0  0  0  0  0  0  0  0
    7.6634    3.5669    0.0000 H   0  0  0  0  0  0  0  0  0  0  0  0
    1.6900   -4.1678    0.0000 H   0  0  0  0  0  0  0  0  0  0  0  0
    1.4631   -5.0147    0.0000 H   0  0  0  0  0  0  0  0  0  0  0  0
    2.3100   -5.2416    0.0000 H   0  0  0  0  0  0  0  0  0  0  0  0
  1  9  1  0  0  0  0
  1 11  1  0  0  0  0
  2 15  1  0  0  0  0
  2 19  1  0  0  0  0
  3 10  2  0  0  0  0
  4  7  1  0  0  0  0
  4 10  1  0  0  0  0
  4 22  1  0  0  0  0
  5  6  1  0  0  0  0
  5  8  1  0  0  0  0
  5 26  1  0  0  0  0
  6 18  2  0  0  0  0
  7  8  1  0  0  0  0
  7 20  1  0  0  0  0
  7 21  1  0  0  0  0
  8 12  2  0  0  0  0
  9 10  1  0  0  0  0
  9 23  1  0  0  0  0
  9 24  1  0  0  0  0
 11 13  2  0  0  0  0
 11 14  1  0  0  0  0
 12 18  1  0  0  0  0
 12 25  1  0  0  0  0
 13 16  1  0  0  0  0
 13 27  1  0  0  0  0
 14 17  2  0  0  0  0
 14 28  1  0  0  0  0
 15 16  2  0  0  0  0
 15 17  1  0  0  0  0
 16 29  1  0  0  0  0
 17 30  1  0  0  0  0
 18 31  1  0  0  0  0
 19 32  1  0  0  0  0
 19 33  1  0  0  0  0
 19 34  1  0  0  0  0
M  END
> <PUBCHEM_COMPOUND_CID>
47205083

> <PUBCHEM_COMPOUND_CANONICALIZED>
1

> <PUBCHEM_CACTVS_COMPLEXITY>
280

> <PUBCHEM_CACTVS_HBOND_ACCEPTOR>
4

> <PUBCHEM_CACTVS_HBOND_DONOR>
2

> <PUBCHEM_CACTVS_ROTATABLE_BOND>
6

> <PUBCHEM_CACTVS_SUBSKEYS>
AAADccBzMAAAAAAAAAAAAAAAAAAAAWAAAAAwAAAAAAAAAAABwAAAHgAYAAAACAzhlgY+hpLjBACqATV3UAKSDAAgogAYuaB+bJgOZqKE8d+XvCjk3hGY6AfAQAAAAQAAAAAAAAACAAAAAAAAAAAAAAAAAA==

> <PUBCHEM_IUPAC_OPENEYE_NAME>
2-(4-methoxyphenoxy)-N-(1H-pyrazol-5-ylmethyl)acetamide

> <PUBCHEM_IUPAC_CAS_NAME>
2-(4-methoxyphenoxy)-N-(1H-pyrazol-5-ylmethyl)acetamide

> <PUBCHEM_IUPAC_NAME>
2-(4-methoxyphenoxy)-N-(1H-pyrazol-5-ylmethyl)acetamide

> <PUBCHEM_IUPAC_SYSTEMATIC_NAME>
2-(4-methoxyphenoxy)-N-(1H-pyrazol-5-ylmethyl)ethanamide

> <PUBCHEM_IUPAC_TRADITIONAL_NAME>
2-(4-methoxyphenoxy)-N-(1H-pyrazol-5-ylmethyl)acetamide

> <PUBCHEM_IUPAC_INCHI>
InChI=1S/C13H15N3O3/c1-18-11-2-4-12(5-3-11)19-9-13(17)14-8-10-6-7-15-16-10/h2-7H,8-9H2,1H3,(H,14,17)(H,15,16)

> <PUBCHEM_IUPAC_INCHIKEY>
PBDJDHJKYGVPAX-UHFFFAOYSA-N

> <PUBCHEM_XLOGP3_AA>
1

> <PUBCHEM_EXACT_MASS>
261.111341

> <PUBCHEM_MOLECULAR_FORMULA>
C13H15N3O3

> <PUBCHEM_MOLECULAR_WEIGHT>
261.2765

> <PUBCHEM_OPENEYE_CAN_SMILES>
COC1=CC=C(C=C1)OCC(=O)NCC2=CC=NN2

> <PUBCHEM_OPENEYE_ISO_SMILES>
COC1=CC=C(C=C1)OCC(=O)NCC2=CC=NN2

> <PUBCHEM_CACTVS_TPSA>
76.2

> <PUBCHEM_MONOISOTOPIC_WEIGHT>
261.111341

> <PUBCHEM_TOTAL_CHARGE>
0

> <PUBCHEM_HEAVY_ATOM_COUNT>
19

> <PUBCHEM_ATOM_DEF_STEREO_COUNT>
0

> <PUBCHEM_ATOM_UDEF_STEREO_COUNT>
0

> <PUBCHEM_BOND_DEF_STEREO_COUNT>
0

> <PUBCHEM_BOND_UDEF_STEREO_COUNT>
0

> <PUBCHEM_ISOTOPIC_ATOM_COUNT>
0

> <PUBCHEM_COMPONENT_COUNT>
1

> <PUBCHEM_CACTVS_TAUTO_COUNT>
4

> <PUBCHEM_COORDINATE_TYPE>
1
5
255

> <PUBCHEM_BONDANNOTATIONS>
11  13  8
11  14  8
12  18  8
13  16  8
14  17  8
15  16  8
15  17  8
5  6  8
5  8  8
6  18  8
8  12  8

$$$$

