17395925
  -OEChem-06241222533D

 43 46  0     0  0  0  0  0  0999 V2000
   -1.8144    0.3469   -0.0853 O   0  0  0  0  0  0  0  0  0  0  0  0
    4.0683   -1.9227    0.0639 O   0  0  0  0  0  0  0  0  0  0  0  0
   -6.1341    0.4381    0.6076 N   0  0  0  0  0  0  0  0  0  0  0  0
   -4.7945   -0.7813   -0.7044 N   0  0  0  0  0  0  0  0  0  0  0  0
    4.5330    0.3756   -0.0208 N   0  0  0  0  0  0  0  0  0  0  0  0
   -4.0949   -0.3050    0.3755 C   0  0  0  0  0  0  0  0  0  0  0  0
   -6.0211   -0.3258   -0.5510 C   0  0  0  0  0  0  0  0  0  0  0  0
   -4.8971    0.4489    1.1991 C   0  0  0  0  0  0  0  0  0  0  0  0
   -2.6675   -0.6203    0.5380 C   0  0  0  0  0  0  0  0  0  0  0  0
   -7.3183    1.0440    1.0184 C   0  0  0  0  0  0  0  0  0  0  0  0
   -7.1974   -0.4810   -1.3419 C   0  0  0  0  0  0  0  0  0  0  0  0
   -0.4752    0.0811   -0.0602 C   0  0  0  0  0  0  0  0  0  0  0  0
    2.2610   -0.4598   -0.0054 C   0  0  0  0  0  0  0  0  0  0  0  0
   -8.4216    0.8939    0.2678 C   0  0  0  0  0  0  0  0  0  0  0  0
   -8.3465    0.1028   -0.9501 C   0  0  0  0  0  0  0  0  0  0  0  0
   -0.0063   -1.0822    0.5505 C   0  0  0  0  0  0  0  0  0  0  0  0
    0.4240    0.9738   -0.6433 C   0  0  0  0  0  0  0  0  0  0  0  0
    1.3617   -1.3525    0.5779 C   0  0  0  0  0  0  0  0  0  0  0  0
    1.7920    0.7034   -0.6158 C   0  0  0  0  0  0  0  0  0  0  0  0
    3.6874   -0.7417    0.0241 C   0  0  0  0  0  0  0  0  0  0  0  0
    5.9492    0.4100   -0.0303 C   0  0  0  0  0  0  0  0  0  0  0  0
    6.6761   -0.7798    0.0078 C   0  0  0  0  0  0  0  0  0  0  0  0
    6.6165    1.6338   -0.0788 C   0  0  0  0  0  0  0  0  0  0  0  0
    8.0706   -0.7459   -0.0026 C   0  0  0  0  0  0  0  0  0  0  0  0
    8.0109    1.6678   -0.0894 C   0  0  0  0  0  0  0  0  0  0  0  0
    8.7379    0.4780   -0.0513 C   0  0  0  0  0  0  0  0  0  0  0  0
   -4.7037    0.9758    2.1238 H   0  0  0  0  0  0  0  0  0  0  0  0
   -2.4447   -0.6719    1.6120 H   0  0  0  0  0  0  0  0  0  0  0  0
   -2.5116   -1.6071    0.0817 H   0  0  0  0  0  0  0  0  0  0  0  0
   -7.3044    1.6190    1.9363 H   0  0  0  0  0  0  0  0  0  0  0  0
   -7.1534   -1.0687   -2.2521 H   0  0  0  0  0  0  0  0  0  0  0  0
   -9.3670    1.3449    0.5436 H   0  0  0  0  0  0  0  0  0  0  0  0
   -9.2514   -0.0038   -1.5384 H   0  0  0  0  0  0  0  0  0  0  0  0
   -0.6401   -1.8177    1.0331 H   0  0  0  0  0  0  0  0  0  0  0  0
    0.0631    1.8773   -1.1272 H   0  0  0  0  0  0  0  0  0  0  0  0
    1.7080   -2.2606    1.0649 H   0  0  0  0  0  0  0  0  0  0  0  0
    2.4487    1.4088   -1.1162 H   0  0  0  0  0  0  0  0  0  0  0  0
    4.1098    1.2996   -0.0094 H   0  0  0  0  0  0  0  0  0  0  0  0
    6.2323   -1.7644    0.0463 H   0  0  0  0  0  0  0  0  0  0  0  0
    6.0626    2.5685   -0.1093 H   0  0  0  0  0  0  0  0  0  0  0  0
    8.6380   -1.6716    0.0270 H   0  0  0  0  0  0  0  0  0  0  0  0
    8.5308    2.6206   -0.1273 H   0  0  0  0  0  0  0  0  0  0  0  0
    9.8236    0.5045   -0.0595 H   0  0  0  0  0  0  0  0  0  0  0  0
  1  9  1  0  0  0  0
  1 12  1  0  0  0  0
  2 20  2  0  0  0  0
  3  7  1  0  0  0  0
  3  8  1  0  0  0  0
  3 10  1  0  0  0  0
  4  6  1  0  0  0  0
  4  7  2  0  0  0  0
  5 20  1  0  0  0  0
  5 21  1  0  0  0  0
  5 38  1  0  0  0  0
  6  8  2  0  0  0  0
  6  9  1  0  0  0  0
  7 11  1  0  0  0  0
  8 27  1  0  0  0  0
  9 28  1  0  0  0  0
  9 29  1  0  0  0  0
 10 14  2  0  0  0  0
 10 30  1  0  0  0  0
 11 15  2  0  0  0  0
 11 31  1  0  0  0  0
 12 16  2  0  0  0  0
 12 17  1  0  0  0  0
 13 18  2  0  0  0  0
 13 19  1  0  0  0  0
 13 20  1  0  0  0  0
 14 15  1  0  0  0  0
 14 32  1  0  0  0  0
 15 33  1  0  0  0  0
 16 18  1  0  0  0  0
 16 34  1  0  0  0  0
 17 19  2  0  0  0  0
 17 35  1  0  0  0  0
 18 36  1  0  0  0  0
 19 37  1  0  0  0  0
 21 22  2  0  0  0  0
 21 23  1  0  0  0  0
 22 24  1  0  0  0  0
 22 39  1  0  0  0  0
 23 25  2  0  0  0  0
 23 40  1  0  0  0  0
 24 26  2  0  0  0  0
 24 41  1  0  0  0  0
 25 26  1  0  0  0  0
 25 42  1  0  0  0  0
 26 43  1  0  0  0  0
M  END
> <PUBCHEM_COMPOUND_CID>
17395925

> <PUBCHEM_CONFORMER_RMSD>
0.8

> <PUBCHEM_CONFORMER_DIVERSEORDER>
7
49
46
21
25
80
83
52
45
72
84
56
40
33
5
91
57
16
35
27
43
31
17
81
48
58
71
55
93
8
88
50
68
82
95
89
77
87
76
28
75
60
23
15
96
37
44
3
78
10
32
70
86
12
51
9
92
66
11
2
47
20
36
73
6
38
19
41
62
79
42
85
22
30
97
63
1
39
67
90
65
18
64
29
74
26
61
53
54
24
59
94
34
69
14
13
4

> <PUBCHEM_MMFF94_PARTIAL_CHARGES>
41
1 -0.36
10 -0.18
11 -0.11
12 0.08
13 0.09
14 -0.15
15 -0.15
16 -0.15
17 -0.15
18 -0.15
19 -0.15
2 -0.57
20 0.54
21 0.12
22 -0.15
23 -0.15
24 -0.15
25 -0.15
26 -0.15
27 0.15
3 0.33
30 0.15
31 0.15
32 0.15
33 0.15
34 0.15
35 0.15
36 0.15
37 0.15
38 0.37
39 0.15
4 -0.57
40 0.15
41 0.15
42 0.15
43 0.15
5 -0.55
6 0.05
7 0.14
8 -0.3
9 0.46

> <PUBCHEM_EFFECTIVE_ROTOR_COUNT>
6

> <PUBCHEM_PHARMACOPHORE_FEATURES>
8
1 1 acceptor
1 2 acceptor
1 5 donor
3 3 4 7 cation
5 3 4 6 7 8 rings
6 12 13 16 17 18 19 rings
6 21 22 23 24 25 26 rings
6 3 7 10 11 14 15 rings

> <PUBCHEM_HEAVY_ATOM_COUNT>
26

> <PUBCHEM_ATOM_DEF_STEREO_COUNT>
0

> <PUBCHEM_ATOM_UDEF_STEREO_COUNT>
0

> <PUBCHEM_BOND_DEF_STEREO_COUNT>
0

> <PUBCHEM_BOND_UDEF_STEREO_COUNT>
0

> <PUBCHEM_ISOTOPIC_ATOM_COUNT>
0

> <PUBCHEM_COMPONENT_COUNT>
1

> <PUBCHEM_CACTVS_TAUTO_COUNT>
2

> <PUBCHEM_CONFORMER_ID>
010970D500000007

> <PUBCHEM_MMFF94_ENERGY>
79.5852

> <PUBCHEM_FEATURE_SELFOVERLAP>
40.71

> <PUBCHEM_SHAPE_FINGERPRINT>
10 15 17346601871741179994
10050765 1 18052822730400839088
10299344 5 18040436598416716982
10319688 140 18129105705103081850
11135926 11 14836132030885391075
11315181 36 18259983765601691643
11638347 137 16056604274923908368
12082328 90 14851878192804564521
12089408 11 17967252009276313315
12144603 126 18113896100799638841
12166972 35 8862940580525221422
12236239 1 18259987093995786411
12522641 33 18260263058540532718
12838862 33 17989219126270341090
13617811 41 14418128509890285040
14251764 18 18186521007733740883
14251764 46 17821447962987551454
15131766 46 14762061141327227886
15328684 2 17604989402361641170
15419008 47 16774086158669055796
15461852 350 17458347416817143623
15510794 2 17704068504296239939
1577012 14 18259987102469754443
15849732 13 18409730642648218822
16120349 18 18410577262723558236
17093844 174 17346597466080537667
1754911 235 18186519899669433340
18681886 176 17458354013802527147
19301679 30 13326313510769142168
195137 175 18113613500182865265
19841028 212 14332860335031963864
20238998 120 17489870436086014052
21095086 128 17167860881470438806
21150785 3 17603303747771667783
21360443 120 18113901580925402863
21792934 111 18342466937505621560
21792961 116 16988572341411110510
22224240 67 18202002122873838434
232437 2 18408603656478796071
246663 6 6266902376459488096
249057 3 15430042028363152912
255183 451 17970900301735232718
335352 9 18272087175818646694
33684 2 18410575093253026498
395649 100 18335425613222532095
4073 2 18343015558388230259
4325135 7 18333732420416413516
4339292 15 15647628761925917285
4340502 62 15410897357991823146
437795 83 18269847552960744741
4760202 170 18410022017799801541
5758199 1 18413388739219079442
6009941 240 17632291250904597347
6081469 158 17418376926763785934
636775 72 16773525468928598909
636775 8 17603874344107274583
6691757 9 17458057146053924359
67123 10 18408886226972633071
8209 1 18410293613991898062

> <PUBCHEM_SHAPE_MULTIPOLES>
508.39
31.34
1.35
0.93
0.7
0.02
0.03
7.89
2.07
-1.85
-0.07
1.69
0.02
-0.92

> <PUBCHEM_SHAPE_SELFOVERLAP>
1121.85

> <PUBCHEM_SHAPE_VOLUME>
272.8

> <PUBCHEM_COORDINATE_TYPE>
2
5
10

$$$$

