17395704
  -OEChem-06241222512D

 41 42  0     0  0  0  0  0  0999 V2000
    5.4641    0.8693    0.0000 S   0  0  0  0  0  0  0  0  0  0  0  0
    5.4641   -1.1307    0.0000 O   0  0  0  0  0  0  0  0  0  0  0  0
    4.9641    3.4081    0.0000 N   0  0  0  0  0  0  0  0  0  0  0  0
    6.2731    2.4571    0.0000 N   0  0  0  0  0  0  0  0  0  0  0  0
    3.7320   -1.1307    0.0000 N   0  0  0  0  0  0  0  0  0  0  0  0
    4.6551    2.4571    0.0000 N   0  0  0  0  0  0  0  0  0  0  0  0
    6.5519    4.2172    0.0000 C   0  0  0  0  0  0  0  0  0  0  0  0
    5.9641    3.4081    0.0000 C   0  0  0  0  0  0  0  0  0  0  0  0
    7.5464    4.1126    0.0000 C   0  0  0  0  0  0  0  0  0  0  0  0
    6.1452    5.1307    0.0000 C   0  0  0  0  0  0  0  0  0  0  0  0
    2.8660   -3.6307    0.0000 C   0  0  0  0  0  0  0  0  0  0  0  0
    3.7320   -4.1307    0.0000 C   0  0  0  0  0  0  0  0  0  0  0  0
    3.7320   -2.1307    0.0000 C   0  0  0  0  0  0  0  0  0  0  0  0
    2.8660   -2.6307    0.0000 C   0  0  0  0  0  0  0  0  0  0  0  0
    4.5981   -3.6307    0.0000 C   0  0  0  0  0  0  0  0  0  0  0  0
    4.5981   -2.6307    0.0000 C   0  0  0  0  0  0  0  0  0  0  0  0
    5.4641    1.8693    0.0000 C   0  0  0  0  0  0  0  0  0  0  0  0
    2.0000   -4.1307    0.0000 C   0  0  0  0  0  0  0  0  0  0  0  0
    3.7320   -5.1307    0.0000 C   0  0  0  0  0  0  0  0  0  0  0  0
    4.5981    0.3693    0.0000 C   0  0  0  0  0  0  0  0  0  0  0  0
    4.5981   -0.6307    0.0000 C   0  0  0  0  0  0  0  0  0  0  0  0
    6.9163    4.7188    0.0000 H   0  0  0  0  0  0  0  0  0  0  0  0
    7.4816    3.4960    0.0000 H   0  0  0  0  0  0  0  0  0  0  0  0
    8.1630    4.0478    0.0000 H   0  0  0  0  0  0  0  0  0  0  0  0
    7.6112    4.7292    0.0000 H   0  0  0  0  0  0  0  0  0  0  0  0
    6.7116    5.3829    0.0000 H   0  0  0  0  0  0  0  0  0  0  0  0
    5.8930    5.6971    0.0000 H   0  0  0  0  0  0  0  0  0  0  0  0
    5.5788    4.8785    0.0000 H   0  0  0  0  0  0  0  0  0  0  0  0
    2.3291   -2.3207    0.0000 H   0  0  0  0  0  0  0  0  0  0  0  0
    4.5997    3.9097    0.0000 H   0  0  0  0  0  0  0  0  0  0  0  0
    5.1350   -3.9407    0.0000 H   0  0  0  0  0  0  0  0  0  0  0  0
    5.1350   -2.3207    0.0000 H   0  0  0  0  0  0  0  0  0  0  0  0
    3.1951   -0.8207    0.0000 H   0  0  0  0  0  0  0  0  0  0  0  0
    1.6900   -3.5938    0.0000 H   0  0  0  0  0  0  0  0  0  0  0  0
    1.4631   -4.4407    0.0000 H   0  0  0  0  0  0  0  0  0  0  0  0
    2.3100   -4.6676    0.0000 H   0  0  0  0  0  0  0  0  0  0  0  0
    3.1120   -5.1307    0.0000 H   0  0  0  0  0  0  0  0  0  0  0  0
    3.7320   -5.7507    0.0000 H   0  0  0  0  0  0  0  0  0  0  0  0
    4.3520   -5.1307    0.0000 H   0  0  0  0  0  0  0  0  0  0  0  0
    4.3860    0.9519    0.0000 H   0  0  0  0  0  0  0  0  0  0  0  0
    3.9875    0.2616    0.0000 H   0  0  0  0  0  0  0  0  0  0  0  0
  1 17  1  0  0  0  0
  1 20  1  0  0  0  0
  2 21  2  0  0  0  0
  3  6  1  0  0  0  0
  3  8  1  0  0  0  0
  3 30  1  0  0  0  0
  4  8  2  0  0  0  0
  4 17  1  0  0  0  0
  5 13  1  0  0  0  0
  5 21  1  0  0  0  0
  5 33  1  0  0  0  0
  6 17  2  0  0  0  0
  7  8  1  0  0  0  0
  7  9  1  0  0  0  0
  7 10  1  0  0  0  0
  7 22  1  0  0  0  0
  9 23  1  0  0  0  0
  9 24  1  0  0  0  0
  9 25  1  0  0  0  0
 10 26  1  0  0  0  0
 10 27  1  0  0  0  0
 10 28  1  0  0  0  0
 11 12  2  0  0  0  0
 11 14  1  0  0  0  0
 11 18  1  0  0  0  0
 12 15  1  0  0  0  0
 12 19  1  0  0  0  0
 13 14  2  0  0  0  0
 13 16  1  0  0  0  0
 14 29  1  0  0  0  0
 15 16  2  0  0  0  0
 15 31  1  0  0  0  0
 16 32  1  0  0  0  0
 18 34  1  0  0  0  0
 18 35  1  0  0  0  0
 18 36  1  0  0  0  0
 19 37  1  0  0  0  0
 19 38  1  0  0  0  0
 19 39  1  0  0  0  0
 20 21  1  0  0  0  0
 20 40  1  0  0  0  0
 20 41  1  0  0  0  0
M  END
> <PUBCHEM_COMPOUND_CID>
17395704

> <PUBCHEM_COMPOUND_CANONICALIZED>
1

> <PUBCHEM_CACTVS_COMPLEXITY>
353

> <PUBCHEM_CACTVS_HBOND_ACCEPTOR>
4

> <PUBCHEM_CACTVS_HBOND_DONOR>
2

> <PUBCHEM_CACTVS_ROTATABLE_BOND>
5

> <PUBCHEM_CACTVS_SUBSKEYS>
AAADceBzoABAAAAAAAAAAAAAAAAAAWAAAAAwAAAAAAAAAAABwAAAHgQYAAAADQiF2wCz0IbrEAiqAidydACS0AvhArAdqAAwZIiIKCLAmZGEIAhgnALIyAcQgIAOiAAAQAAQAAAQAACAACAAAAAAAAAAAA==

> <PUBCHEM_IUPAC_OPENEYE_NAME>
N-(3,4-dimethylphenyl)-2-[(5-isopropyl-1H-1,2,4-triazol-3-yl)sulfanyl]acetamide

> <PUBCHEM_IUPAC_CAS_NAME>
N-(3,4-dimethylphenyl)-2-[(5-propan-2-yl-1H-1,2,4-triazol-3-yl)thio]acetamide

> <PUBCHEM_IUPAC_NAME>
N-(3,4-dimethylphenyl)-2-[(5-propan-2-yl-1H-1,2,4-triazol-3-yl)sulfanyl]acetamide

> <PUBCHEM_IUPAC_SYSTEMATIC_NAME>
N-(3,4-dimethylphenyl)-2-[(5-propan-2-yl-1H-1,2,4-triazol-3-yl)sulfanyl]ethanamide

> <PUBCHEM_IUPAC_TRADITIONAL_NAME>
N-(3,4-dimethylphenyl)-2-[(5-isopropyl-1H-1,2,4-triazol-3-yl)thio]acetamide

> <PUBCHEM_IUPAC_INCHI>
InChI=1S/C15H20N4OS/c1-9(2)14-17-15(19-18-14)21-8-13(20)16-12-6-5-10(3)11(4)7-12/h5-7,9H,8H2,1-4H3,(H,16,20)(H,17,18,19)

> <PUBCHEM_IUPAC_INCHIKEY>
BSVKSFLKVNOSBY-UHFFFAOYSA-N

> <PUBCHEM_XLOGP3_AA>
3.6

> <PUBCHEM_EXACT_MASS>
304.135782

> <PUBCHEM_MOLECULAR_FORMULA>
C15H20N4OS

> <PUBCHEM_MOLECULAR_WEIGHT>
304.4105

> <PUBCHEM_OPENEYE_CAN_SMILES>
CC1=C(C=C(C=C1)NC(=O)CSC2=NNC(=N2)C(C)C)C

> <PUBCHEM_OPENEYE_ISO_SMILES>
CC1=C(C=C(C=C1)NC(=O)CSC2=NNC(=N2)C(C)C)C

> <PUBCHEM_CACTVS_TPSA>
96

> <PUBCHEM_MONOISOTOPIC_WEIGHT>
304.135782

> <PUBCHEM_TOTAL_CHARGE>
0

> <PUBCHEM_HEAVY_ATOM_COUNT>
21

> <PUBCHEM_ATOM_DEF_STEREO_COUNT>
0

> <PUBCHEM_ATOM_UDEF_STEREO_COUNT>
0

> <PUBCHEM_BOND_DEF_STEREO_COUNT>
0

> <PUBCHEM_BOND_UDEF_STEREO_COUNT>
0

> <PUBCHEM_ISOTOPIC_ATOM_COUNT>
0

> <PUBCHEM_COMPONENT_COUNT>
1

> <PUBCHEM_CACTVS_TAUTO_COUNT>
15

> <PUBCHEM_COORDINATE_TYPE>
1
5
255

> <PUBCHEM_BONDANNOTATIONS>
11  12  8
11  14  8
12  15  8
13  14  8
13  16  8
15  16  8
3  6  8
3  8  8
4  17  8
4  8  8
6  17  8

$$$$

