3406
  -OEChem-06251223242D

 12 12  0     0  0  0  0  0  0999 V2000
    2.8090   -0.8639    0.0000 N   0  0  0  0  0  0  0  0  0  0  0  0
    2.0000   -0.2761    0.0000 N   0  0  0  0  0  0  0  0  0  0  0  0
    3.3090    0.6749    0.0000 C   0  0  0  0  0  0  0  0  0  0  0  0
    3.6180   -0.2761    0.0000 C   0  0  0  0  0  0  0  0  0  0  0  0
    3.8968    1.4839    0.0000 C   0  0  0  0  0  0  0  0  0  0  0  0
    2.3090    0.6749    0.0000 C   0  0  0  0  0  0  0  0  0  0  0  0
    4.2077   -0.4677    0.0000 H   0  0  0  0  0  0  0  0  0  0  0  0
    4.3984    1.1195    0.0000 H   0  0  0  0  0  0  0  0  0  0  0  0
    4.2612    1.9855    0.0000 H   0  0  0  0  0  0  0  0  0  0  0  0
    3.3952    1.8484    0.0000 H   0  0  0  0  0  0  0  0  0  0  0  0
    1.9446    1.1765    0.0000 H   0  0  0  0  0  0  0  0  0  0  0  0
    2.8090   -1.4839    0.0000 H   0  0  0  0  0  0  0  0  0  0  0  0
  1  2  1  0  0  0  0
  1  4  1  0  0  0  0
  1 12  1  0  0  0  0
  2  6  2  0  0  0  0
  3  4  2  0  0  0  0
  3  5  1  0  0  0  0
  3  6  1  0  0  0  0
  4  7  1  0  0  0  0
  5  8  1  0  0  0  0
  5  9  1  0  0  0  0
  5 10  1  0  0  0  0
  6 11  1  0  0  0  0
M  END
> <PUBCHEM_COMPOUND_CID>
3406

> <PUBCHEM_COMPOUND_CANONICALIZED>
1

> <PUBCHEM_CACTVS_COMPLEXITY>
44.8

> <PUBCHEM_CACTVS_HBOND_ACCEPTOR>
1

> <PUBCHEM_CACTVS_HBOND_DONOR>
1

> <PUBCHEM_CACTVS_ROTATABLE_BOND>
0

> <PUBCHEM_CACTVS_SUBSKEYS>
AAADcYBjAAAAAAAAAAAAAAAAAAAAAWAAAAAAAAAAAAAAAAABgAAAHAAYAAAADADBGgQugJBjAACiAhBnQACQBAAAgAAQMaAgRBAAAIAAQUAAhAAACAAAAAAAAAAAAAAAAAAAAAAAAAAAAAAAAAAAAAAAAA==

> <PUBCHEM_IUPAC_OPENEYE_NAME>
4-methyl-1H-pyrazole

> <PUBCHEM_IUPAC_CAS_NAME>
4-methyl-1H-pyrazole

> <PUBCHEM_IUPAC_NAME>
4-methyl-1H-pyrazole

> <PUBCHEM_IUPAC_SYSTEMATIC_NAME>
4-methyl-1H-pyrazole

> <PUBCHEM_IUPAC_TRADITIONAL_NAME>
4-methyl-1H-pyrazole

> <PUBCHEM_IUPAC_INCHI>
InChI=1S/C4H6N2/c1-4-2-5-6-3-4/h2-3H,1H3,(H,5,6)

> <PUBCHEM_IUPAC_INCHIKEY>
RIKMMFOAQPJVMX-UHFFFAOYSA-N

> <PUBCHEM_XLOGP3>
1.4

> <PUBCHEM_EXACT_MASS>
82.053098

> <PUBCHEM_MOLECULAR_FORMULA>
C4H6N2

> <PUBCHEM_MOLECULAR_WEIGHT>
82.10384

> <PUBCHEM_OPENEYE_CAN_SMILES>
CC1=CNN=C1

> <PUBCHEM_OPENEYE_ISO_SMILES>
CC1=CNN=C1

> <PUBCHEM_CACTVS_TPSA>
28.7

> <PUBCHEM_MONOISOTOPIC_WEIGHT>
82.053098

> <PUBCHEM_TOTAL_CHARGE>
0

> <PUBCHEM_HEAVY_ATOM_COUNT>
6

> <PUBCHEM_ATOM_DEF_STEREO_COUNT>
0

> <PUBCHEM_ATOM_UDEF_STEREO_COUNT>
0

> <PUBCHEM_BOND_DEF_STEREO_COUNT>
0

> <PUBCHEM_BOND_UDEF_STEREO_COUNT>
0

> <PUBCHEM_ISOTOPIC_ATOM_COUNT>
0

> <PUBCHEM_COMPONENT_COUNT>
1

> <PUBCHEM_CACTVS_TAUTO_COUNT>
1

> <PUBCHEM_COORDINATE_TYPE>
1
5
255

> <PUBCHEM_BONDANNOTATIONS>
1  2  8
1  4  8
2  6  8
3  4  8
3  6  8

$$$$

