9214
  -OEChem-06261203312D

 20 22  0     0  0  0  0  0  0999 V2000
    3.7841    0.6830    0.0000 C   0  0  0  0  0  0  0  0  0  0  0  0
    2.9180    0.1830    0.0000 C   0  0  0  0  0  0  0  0  0  0  0  0
    4.2841   -0.1830    0.0000 C   0  0  0  0  0  0  0  0  0  0  0  0
    3.4180   -0.6830    0.0000 C   0  0  0  0  0  0  0  0  0  0  0  0
    3.4020   -1.7245    0.0000 C   0  0  0  0  0  0  0  0  0  0  0  0
    5.1941   -0.6899    0.0000 C   0  0  0  0  0  0  0  0  0  0  0  0
    2.0080    0.6899    0.0000 C   0  0  0  0  0  0  0  0  0  0  0  0
    3.8001    1.7245    0.0000 C   0  0  0  0  0  0  0  0  0  0  0  0
    2.9021    2.2523    0.0000 C   0  0  0  0  0  0  0  0  0  0  0  0
    2.0000    1.7315    0.0000 C   0  0  0  0  0  0  0  0  0  0  0  0
    5.2021   -1.7315    0.0000 C   0  0  0  0  0  0  0  0  0  0  0  0
    4.3000   -2.2523    0.0000 C   0  0  0  0  0  0  0  0  0  0  0  0
    2.8615   -2.0283    0.0000 H   0  0  0  0  0  0  0  0  0  0  0  0
    5.7274   -0.3737    0.0000 H   0  0  0  0  0  0  0  0  0  0  0  0
    1.4747    0.3737    0.0000 H   0  0  0  0  0  0  0  0  0  0  0  0
    4.3406    2.0283    0.0000 H   0  0  0  0  0  0  0  0  0  0  0  0
    4.2976   -2.8723    0.0000 H   0  0  0  0  0  0  0  0  0  0  0  0
    5.7402   -2.0394    0.0000 H   0  0  0  0  0  0  0  0  0  0  0  0
    1.4619    2.0394    0.0000 H   0  0  0  0  0  0  0  0  0  0  0  0
    2.9045    2.8723    0.0000 H   0  0  0  0  0  0  0  0  0  0  0  0
  1  2  1  0  0  0  0
  1  3  1  0  0  0  0
  1  8  2  0  0  0  0
  2  4  1  0  0  0  0
  2  7  2  0  0  0  0
  3  4  1  0  0  0  0
  3  6  2  0  0  0  0
  4  5  2  0  0  0  0
  5 12  1  0  0  0  0
  5 13  1  0  0  0  0
  6 11  1  0  0  0  0
  6 14  1  0  0  0  0
  7 10  1  0  0  0  0
  7 15  1  0  0  0  0
  8  9  1  0  0  0  0
  8 16  1  0  0  0  0
  9 10  2  0  0  0  0
  9 20  1  0  0  0  0
 10 19  1  0  0  0  0
 11 12  2  0  0  0  0
 11 18  1  0  0  0  0
 12 17  1  0  0  0  0
M  END
> <PUBCHEM_COMPOUND_CID>
9214

> <PUBCHEM_COMPOUND_CANONICALIZED>
1

> <PUBCHEM_CACTVS_COMPLEXITY>
133

> <PUBCHEM_CACTVS_HBOND_ACCEPTOR>
0

> <PUBCHEM_CACTVS_HBOND_DONOR>
0

> <PUBCHEM_CACTVS_ROTATABLE_BOND>
0

> <PUBCHEM_CACTVS_SUBSKEYS>
AAADccBwAAAAAAAAAAAAAAAAAABgAAAAAAAwYAAAAAAYMAABQAAAGAAAAAAADACAGAAwAIAAAACAAiBCAAACAAAgAAAIiAAAAIgIICKAERCAIAAggAAIiAcAgMAOgAAAAAAQAAAAAAAAACAAAAAAAAAAAA==

> <PUBCHEM_IUPAC_OPENEYE_NAME>
biphenylene

> <PUBCHEM_IUPAC_CAS_NAME>
biphenylene

> <PUBCHEM_IUPAC_NAME>
biphenylene

> <PUBCHEM_IUPAC_SYSTEMATIC_NAME>
biphenylene

> <PUBCHEM_IUPAC_TRADITIONAL_NAME>
biphenylene

> <PUBCHEM_IUPAC_INCHI>
InChI=1S/C12H8/c1-2-6-10-9(5-1)11-7-3-4-8-12(10)11/h1-8H

> <PUBCHEM_IUPAC_INCHIKEY>
IFVTZJHWGZSXFD-UHFFFAOYSA-N

> <PUBCHEM_XLOGP3_AA>
2.3

> <PUBCHEM_EXACT_MASS>
152.0626

> <PUBCHEM_MOLECULAR_FORMULA>
C12H8

> <PUBCHEM_MOLECULAR_WEIGHT>
152.19192

> <PUBCHEM_OPENEYE_CAN_SMILES>
C1=CC=C2C(=C1)C3=CC=CC=C23

> <PUBCHEM_OPENEYE_ISO_SMILES>
C1=CC=C2C(=C1)C3=CC=CC=C23

> <PUBCHEM_CACTVS_TPSA>
0

> <PUBCHEM_MONOISOTOPIC_WEIGHT>
152.0626

> <PUBCHEM_TOTAL_CHARGE>
0

> <PUBCHEM_HEAVY_ATOM_COUNT>
12

> <PUBCHEM_ATOM_DEF_STEREO_COUNT>
0

> <PUBCHEM_ATOM_UDEF_STEREO_COUNT>
0

> <PUBCHEM_BOND_DEF_STEREO_COUNT>
0

> <PUBCHEM_BOND_UDEF_STEREO_COUNT>
0

> <PUBCHEM_ISOTOPIC_ATOM_COUNT>
0

> <PUBCHEM_COMPONENT_COUNT>
1

> <PUBCHEM_CACTVS_TAUTO_COUNT>
1

> <PUBCHEM_COORDINATE_TYPE>
1
5
255

> <PUBCHEM_BONDANNOTATIONS>
1  2  8
1  8  8
11  12  8
2  7  8
3  4  8
3  6  8
4  5  8
5  12  8
6  11  8
7  10  8
8  9  8
9  10  8

$$$$

