13247
  -OEChem-06261208033D

 24 25  0     0  0  0  0  0  0999 V2000
   -1.8604    0.0693   -0.8110 O   0  0  0  0  0  0  0  0  0  0  0  0
   -2.3720    0.2689    1.4646 O   0  0  0  0  0  0  0  0  0  0  0  0
    0.4877    0.1571   -0.2514 C   0  0  0  0  0  0  0  0  0  0  0  0
    1.6661   -0.5424    0.1021 C   0  0  0  0  0  0  0  0  0  0  0  0
   -0.6990   -0.5623   -0.4675 C   0  0  0  0  0  0  0  0  0  0  0  0
    1.6231   -1.9404    0.2294 C   0  0  0  0  0  0  0  0  0  0  0  0
    0.5309    1.5550   -0.3783 C   0  0  0  0  0  0  0  0  0  0  0  0
    2.8528    0.1767    0.3184 C   0  0  0  0  0  0  0  0  0  0  0  0
   -0.7236   -1.9512   -0.3371 C   0  0  0  0  0  0  0  0  0  0  0  0
    0.4352   -2.6390    0.0110 C   0  0  0  0  0  0  0  0  0  0  0  0
    1.7187    2.2533   -0.1601 C   0  0  0  0  0  0  0  0  0  0  0  0
    2.8776    1.5655    0.1876 C   0  0  0  0  0  0  0  0  0  0  0  0
   -2.6450    0.4540    0.2860 C   0  0  0  0  0  0  0  0  0  0  0  0
   -3.8921    1.1356   -0.1937 C   0  0  0  0  0  0  0  0  0  0  0  0
    2.5168   -2.4986    0.5005 H   0  0  0  0  0  0  0  0  0  0  0  0
   -0.3537    2.1254   -0.6523 H   0  0  0  0  0  0  0  0  0  0  0  0
    3.7706   -0.3403    0.5911 H   0  0  0  0  0  0  0  0  0  0  0  0
   -1.6441   -2.5036   -0.5064 H   0  0  0  0  0  0  0  0  0  0  0  0
    0.4155   -3.7202    0.1124 H   0  0  0  0  0  0  0  0  0  0  0  0
    1.7391    3.3345   -0.2625 H   0  0  0  0  0  0  0  0  0  0  0  0
    3.8021    2.1097    0.3572 H   0  0  0  0  0  0  0  0  0  0  0  0
   -3.6276    2.0293   -0.7643 H   0  0  0  0  0  0  0  0  0  0  0  0
   -4.4952    1.4368    0.6675 H   0  0  0  0  0  0  0  0  0  0  0  0
   -4.4773    0.4458   -0.8065 H   0  0  0  0  0  0  0  0  0  0  0  0
  1  5  1  0  0  0  0
  1 13  1  0  0  0  0
  2 13  2  0  0  0  0
  3  4  1  0  0  0  0
  3  5  1  0  0  0  0
  3  7  2  0  0  0  0
  4  6  1  0  0  0  0
  4  8  2  0  0  0  0
  5  9  2  0  0  0  0
  6 10  2  0  0  0  0
  6 15  1  0  0  0  0
  7 11  1  0  0  0  0
  7 16  1  0  0  0  0
  8 12  1  0  0  0  0
  8 17  1  0  0  0  0
  9 10  1  0  0  0  0
  9 18  1  0  0  0  0
 10 19  1  0  0  0  0
 11 12  2  0  0  0  0
 11 20  1  0  0  0  0
 12 21  1  0  0  0  0
 13 14  1  0  0  0  0
 14 22  1  0  0  0  0
 14 23  1  0  0  0  0
 14 24  1  0  0  0  0
M  END
> <PUBCHEM_COMPOUND_CID>
13247

> <PUBCHEM_CONFORMER_RMSD>
0.6

> <PUBCHEM_CONFORMER_DIVERSEORDER>
1
3
8
5
2
6
4
7

> <PUBCHEM_MMFF94_PARTIAL_CHARGES>
19
1 -0.23
10 -0.15
11 -0.15
12 -0.15
13 0.66
14 0.06
15 0.15
16 0.15
17 0.15
18 0.15
19 0.15
2 -0.57
20 0.15
21 0.15
5 0.08
6 -0.15
7 -0.15
8 -0.15
9 -0.15

> <PUBCHEM_EFFECTIVE_ROTOR_COUNT>
2

> <PUBCHEM_PHARMACOPHORE_FEATURES>
3
1 2 acceptor
6 3 4 5 6 9 10 rings
6 3 4 7 8 11 12 rings

> <PUBCHEM_HEAVY_ATOM_COUNT>
14

> <PUBCHEM_ATOM_DEF_STEREO_COUNT>
0

> <PUBCHEM_ATOM_UDEF_STEREO_COUNT>
0

> <PUBCHEM_BOND_DEF_STEREO_COUNT>
0

> <PUBCHEM_BOND_UDEF_STEREO_COUNT>
0

> <PUBCHEM_ISOTOPIC_ATOM_COUNT>
0

> <PUBCHEM_COMPONENT_COUNT>
1

> <PUBCHEM_CACTVS_TAUTO_COUNT>
1

> <PUBCHEM_CONFORMER_ID>
000033BF00000001

> <PUBCHEM_MMFF94_ENERGY>
43.5914

> <PUBCHEM_FEATURE_SELFOVERLAP>
15.249

> <PUBCHEM_SHAPE_FINGERPRINT>
10219947 1 18339642346865503185
10465860 228 18263074582243445185
10967382 1 18338802315760826644
10980938 120 18411702122873521997
11471102 20 18339931527193047101
11471102 22 18271514390379477145
12202030 40 14475590082157464240
12346645 6 18337676420143631101
12382932 28 18337959995591594608
12491281 212 18197497312244823984
13140716 1 18340216189415202202
13172582 1 18340497715694084850
13380535 76 18338242552657555070
14251717 144 18338526330126788815
15309172 13 18412259510781062953
15775835 57 18259984860032660713
15906896 17 17972040240739789119
161256 15 18121216743068263734
16945 1 18411426137049599550
19049666 15 17628922519408033733
193761 8 18267306426405297206
20510252 161 17614845115286060000
21501502 16 18124320398326958020
21524375 3 18261392196166270613
21639500 275 18338816592612050429
2334 1 18123473774162541460
2748010 2 18339641127422111790
305870 269 18411138026037258096
528862 383 18341055202180203739
528886 8 18410581656300704008
7364860 26 18262518220416278695
77492 1 17677062342538522109
81228 2 17546163000312494098
8272917 22 18264484156440209453

> <PUBCHEM_SHAPE_MULTIPOLES>
276.37
4.7
2.59
0.82
3.24
0.95
0.13
-2.65
0.6
-1.15
-0.13
0.33
-0.04
-0.14

> <PUBCHEM_SHAPE_SELFOVERLAP>
601.143

> <PUBCHEM_SHAPE_VOLUME>
150

> <PUBCHEM_COORDINATE_TYPE>
2
5
10

$$$$

