51090942
  -OEChem-06241223013D

 46 47  0     1  0  0  0  0  0999 V2000
    0.2702   -2.0145   -0.8973 O   0  0  0  0  0  0  0  0  0  0  0  0
   -4.6080    0.7097   -0.3479 N   0  0  1  0  0  0  0  0  0  0  0  0
   -0.7097   -0.8338    0.8430 N   0  0  0  0  0  0  0  0  0  0  0  0
    3.6360    0.3440    0.0242 N   0  0  0  0  0  0  0  0  0  0  0  0
    2.9886    1.4025    0.5407 N   0  0  0  0  0  0  0  0  0  0  0  0
   -2.9717   -0.8991   -0.0666 C   0  0  1  0  0  0  0  0  0  0  0  0
   -4.3200   -1.6232   -0.0936 C   0  0  0  0  0  0  0  0  0  0  0  0
   -3.3297    0.5257    0.3401 C   0  0  0  0  0  0  0  0  0  0  0  0
   -5.3690   -0.5132   -0.0834 C   0  0  0  0  0  0  0  0  0  0  0  0
   -1.9540   -1.5468    0.8572 C   0  0  0  0  0  0  0  0  0  0  0  0
   -5.3090    1.9076    0.0892 C   0  0  0  0  0  0  0  0  0  0  0  0
   -6.6412    2.0588   -0.6156 C   0  0  0  0  0  0  0  0  0  0  0  0
    5.0644    0.4040   -0.1731 C   0  0  0  0  0  0  0  0  0  0  0  0
    0.3186   -1.1295   -0.0471 C   0  0  0  0  0  0  0  0  0  0  0  0
    1.5547   -0.3159    0.0842 C   0  0  0  0  0  0  0  0  0  0  0  0
    2.8224   -0.7114   -0.2666 C   0  0  0  0  0  0  0  0  0  0  0  0
    5.3909    0.2066   -1.6693 C   0  0  0  0  0  0  0  0  0  0  0  0
    5.7496   -0.7102    0.6474 C   0  0  0  0  0  0  0  0  0  0  0  0
    5.6994    1.7451    0.2593 C   0  0  0  0  0  0  0  0  0  0  0  0
    1.7176    0.9934    0.5750 C   0  0  0  0  0  0  0  0  0  0  0  0
   -2.5705   -0.8811   -1.0905 H   0  0  0  0  0  0  0  0  0  0  0  0
   -4.3994   -2.2361   -0.9986 H   0  0  0  0  0  0  0  0  0  0  0  0
   -4.4551   -2.2828    0.7708 H   0  0  0  0  0  0  0  0  0  0  0  0
   -2.5791    1.2456   -0.0026 H   0  0  0  0  0  0  0  0  0  0  0  0
   -3.4361    0.6148    1.4292 H   0  0  0  0  0  0  0  0  0  0  0  0
   -5.8561   -0.4891    0.9000 H   0  0  0  0  0  0  0  0  0  0  0  0
   -6.1328   -0.6969   -0.8460 H   0  0  0  0  0  0  0  0  0  0  0  0
   -2.3115   -1.5564    1.8928 H   0  0  0  0  0  0  0  0  0  0  0  0
   -1.7783   -2.5857    0.5559 H   0  0  0  0  0  0  0  0  0  0  0  0
   -4.6952    2.7861   -0.1441 H   0  0  0  0  0  0  0  0  0  0  0  0
   -5.4715    1.9083    1.1746 H   0  0  0  0  0  0  0  0  0  0  0  0
   -0.5840   -0.0905    1.5237 H   0  0  0  0  0  0  0  0  0  0  0  0
   -6.5252    2.0182   -1.7042 H   0  0  0  0  0  0  0  0  0  0  0  0
   -7.3601    1.2903   -0.3144 H   0  0  0  0  0  0  0  0  0  0  0  0
   -7.0843    3.0294   -0.3677 H   0  0  0  0  0  0  0  0  0  0  0  0
    3.1960   -1.6351   -0.6876 H   0  0  0  0  0  0  0  0  0  0  0  0
    5.4267   -1.7086    0.3314 H   0  0  0  0  0  0  0  0  0  0  0  0
    5.5179   -0.6127    1.7147 H   0  0  0  0  0  0  0  0  0  0  0  0
    6.8394   -0.6722    0.5360 H   0  0  0  0  0  0  0  0  0  0  0  0
    5.5325    1.9421    1.3250 H   0  0  0  0  0  0  0  0  0  0  0  0
    6.7829    1.7455    0.0920 H   0  0  0  0  0  0  0  0  0  0  0  0
    5.2807    2.5869   -0.3049 H   0  0  0  0  0  0  0  0  0  0  0  0
    5.0599   -0.7722   -2.0346 H   0  0  0  0  0  0  0  0  0  0  0  0
    4.8991    0.9699   -2.2840 H   0  0  0  0  0  0  0  0  0  0  0  0
    6.4696    0.2725   -1.8523 H   0  0  0  0  0  0  0  0  0  0  0  0
    0.9675    1.6727    0.9546 H   0  0  0  0  0  0  0  0  0  0  0  0
  1 14  2  0  0  0  0
  2  8  1  0  0  0  0
  2  9  1  0  0  0  0
  2 11  1  0  0  0  0
  3 10  1  0  0  0  0
  3 14  1  0  0  0  0
  3 32  1  0  0  0  0
  4  5  1  0  0  0  0
  4 13  1  0  0  0  0
  4 16  1  0  0  0  0
  5 20  2  0  0  0  0
  6  7  1  0  0  0  0
  6  8  1  0  0  0  0
  6 10  1  0  0  0  0
  6 21  1  0  0  0  0
  7  9  1  0  0  0  0
  7 22  1  0  0  0  0
  7 23  1  0  0  0  0
  8 24  1  0  0  0  0
  8 25  1  0  0  0  0
  9 26  1  0  0  0  0
  9 27  1  0  0  0  0
 10 28  1  0  0  0  0
 10 29  1  0  0  0  0
 11 12  1  0  0  0  0
 11 30  1  0  0  0  0
 11 31  1  0  0  0  0
 12 33  1  0  0  0  0
 12 34  1  0  0  0  0
 12 35  1  0  0  0  0
 13 17  1  0  0  0  0
 13 18  1  0  0  0  0
 13 19  1  0  0  0  0
 14 15  1  0  0  0  0
 15 16  2  0  0  0  0
 15 20  1  0  0  0  0
 16 36  1  0  0  0  0
 17 43  1  0  0  0  0
 17 44  1  0  0  0  0
 17 45  1  0  0  0  0
 18 37  1  0  0  0  0
 18 38  1  0  0  0  0
 18 39  1  0  0  0  0
 19 40  1  0  0  0  0
 19 41  1  0  0  0  0
 19 42  1  0  0  0  0
 20 46  1  0  0  0  0
M  END
> <PUBCHEM_COMPOUND_CID>
51090942

> <PUBCHEM_CONFORMER_RMSD>
0.8

> <PUBCHEM_CONFORMER_DIVERSEORDER>
1
114
13
110
121
95
101
49
18
74
73
7
42
17
99
70
79
120
14
91
45
69
97
56
89
44
123
32
59
77
98
12
148
33
108
117
125
55
68
21
82
104
151
41
27
60
39
20
131
61
141
81
88
100
11
144
80
9
122
47
113
119
149
5
36
83
94
26
15
130
78
128
52
107
84
23
40
4
76
63
87
29
65
127
142
136
93
46
85
53
71
38
30
37
132
57
22
2
140
51
6
35
34
112
96
3
43
24
150
139
48
143
106
90
10
129
102
58
8
135
92
75
146
64
62
118
111
72
115
103
50
66
109
28
133
134
19
67
116
86
105
147
16
126
25
137
31
145
54
124
138

> <PUBCHEM_MMFF94_PARTIAL_CHARGES>
17
1 -0.57
10 0.3
11 0.27
13 0.26
14 0.72
15 -0.09
16 -0.3
2 -0.81
20 0.14
3 -0.73
32 0.37
36 0.15
4 0.31
46 0.15
5 -0.71
8 0.27
9 0.27

> <PUBCHEM_EFFECTIVE_ROTOR_COUNT>
7

> <PUBCHEM_PHARMACOPHORE_FEATURES>
7
1 1 acceptor
1 2 cation
1 3 donor
1 5 acceptor
4 13 17 18 19 hydrophobe
5 2 6 7 8 9 rings
5 4 5 15 16 20 rings

> <PUBCHEM_HEAVY_ATOM_COUNT>
20

> <PUBCHEM_ATOM_DEF_STEREO_COUNT>
0

> <PUBCHEM_ATOM_UDEF_STEREO_COUNT>
1

> <PUBCHEM_BOND_DEF_STEREO_COUNT>
0

> <PUBCHEM_BOND_UDEF_STEREO_COUNT>
0

> <PUBCHEM_ISOTOPIC_ATOM_COUNT>
0

> <PUBCHEM_COMPONENT_COUNT>
1

> <PUBCHEM_CACTVS_TAUTO_COUNT>
2

> <PUBCHEM_CONFORMER_ID>
030B95FE00000001

> <PUBCHEM_MMFF94_ENERGY>
29.6271

> <PUBCHEM_FEATURE_SELFOVERLAP>
35.52

> <PUBCHEM_SHAPE_FINGERPRINT>
100836 57 18201716271398968069
11089746 13 18410301280999151426
117890 112 18343864415976961306
12236239 1 17847061077555668658
12403259 415 18114748131404513633
12596602 18 15554439687340219245
12616971 3 4823219463252993963
12670543 26 18260541251644640430
13073987 5 18201440246530470026
13167372 99 18342740732315753280
13402501 40 18409451388407444161
13533116 47 17560809878923117650
13740256 8 9295282850733782419
13785724 45 17908149025127095442
1420 363 10519992564739786968
14251764 18 18201725037902038082
14573314 32 18335693945145012630
14931854 50 18114750459900091769
15048467 5 17489304149438010934
15183329 4 18334572481796883816
15196674 1 18410013204283400825
15238133 3 17989200435042193652
15778101 99 18411980287226902601
17834072 8 18260540113836918622
17844677 252 18198615549555308344
18785283 64 10159111915029198230
200 152 16008740308013871450
20281389 69 18201721756030240961
20621476 66 18342453746822337173
20645477 56 18412543241533319875
20645477 70 17313368034140177950
21033648 29 18261965041608440752
21150785 3 6411022002260175064
21279426 13 18335414707825183494
21421861 104 17560253543119189922
21637258 2 6194555568167015689
21709351 56 18187651271585884445
22289505 5 18187644726055815964
22393880 68 17967542242055525911
23081809 10 17917431999561599290
23402539 116 18410860949370757231
23402655 69 18260550047769258923
23536379 177 18343585135850105378
23559900 14 18187091620115274833
270888 7 18270685406685501309
2838139 119 18410301332444099405
29717793 49 16515674564090951852
3004659 81 18343581863702334026
3009799 131 17168148948615261480
32948 21 18412823573589735456
351380 180 18409450258571913498
351380 3 7420942063339238941
3545911 37 18335136497371660379
4072396 5 18261401074539255522
4073 2 17988638562893935986
441001 317 18411982455884719787
5104073 3 17917714603824611419
542803 24 17275103907868570886
56616090 46 18342734130645363002
5969126 39 18265338305783617199
6328613 192 18130781223115209628
7062679 6 18201996646864317637
999808 66 7132426974111664861

> <PUBCHEM_SHAPE_MULTIPOLES>
385.8
17.16
2
0.94
2.91
0.35
0.2
8.51
2.32
2.1
0.02
-0.78
-0.04
0.53

> <PUBCHEM_SHAPE_SELFOVERLAP>
786.445

> <PUBCHEM_SHAPE_VOLUME>
228.6

> <PUBCHEM_COORDINATE_TYPE>
2
5
10

$$$$

