9130
  -OEChem-06261203263D

 44 50  0     0  0  0  0  0  0999 V2000
    2.8943   -0.7081   -0.0001 C   0  0  0  0  0  0  0  0  0  0  0  0
    2.8943    0.7080   -0.0001 C   0  0  0  0  0  0  0  0  0  0  0  0
    0.4287   -0.7103    0.0005 C   0  0  0  0  0  0  0  0  0  0  0  0
    0.4287    0.7104    0.0004 C   0  0  0  0  0  0  0  0  0  0  0  0
    1.6726   -1.4266    0.0002 C   0  0  0  0  0  0  0  0  0  0  0  0
    1.6727    1.4267    0.0001 C   0  0  0  0  0  0  0  0  0  0  0  0
    4.1388   -1.4029   -0.0004 C   0  0  0  0  0  0  0  0  0  0  0  0
    4.1389    1.4029   -0.0003 C   0  0  0  0  0  0  0  0  0  0  0  0
   -0.8314   -1.3706    0.0006 C   0  0  0  0  0  0  0  0  0  0  0  0
   -0.8314    1.3707    0.0006 C   0  0  0  0  0  0  0  0  0  0  0  0
   -2.0645   -0.6978    0.0006 C   0  0  0  0  0  0  0  0  0  0  0  0
   -2.0645    0.6979    0.0006 C   0  0  0  0  0  0  0  0  0  0  0  0
    1.7658   -2.8429    0.0003 C   0  0  0  0  0  0  0  0  0  0  0  0
    1.7659    2.8428    0.0003 C   0  0  0  0  0  0  0  0  0  0  0  0
    5.3419   -0.6943   -0.0008 C   0  0  0  0  0  0  0  0  0  0  0  0
    5.3419    0.6942   -0.0007 C   0  0  0  0  0  0  0  0  0  0  0  0
    4.1687   -2.7982   -0.0003 C   0  0  0  0  0  0  0  0  0  0  0  0
    4.1688    2.7982    0.0000 C   0  0  0  0  0  0  0  0  0  0  0  0
   -3.2904   -1.3889    0.0005 C   0  0  0  0  0  0  0  0  0  0  0  0
   -3.2905    1.3890    0.0005 C   0  0  0  0  0  0  0  0  0  0  0  0
    2.9861   -3.5165    0.0000 C   0  0  0  0  0  0  0  0  0  0  0  0
    2.9863    3.5165    0.0002 C   0  0  0  0  0  0  0  0  0  0  0  0
   -4.5175   -0.7054    0.0000 C   0  0  0  0  0  0  0  0  0  0  0  0
   -4.5174    0.7054   -0.0001 C   0  0  0  0  0  0  0  0  0  0  0  0
   -5.7425   -1.3930   -0.0001 C   0  0  0  0  0  0  0  0  0  0  0  0
   -5.7426    1.3931   -0.0007 C   0  0  0  0  0  0  0  0  0  0  0  0
   -6.9508   -0.6957   -0.0006 C   0  0  0  0  0  0  0  0  0  0  0  0
   -6.9508    0.6956   -0.0011 C   0  0  0  0  0  0  0  0  0  0  0  0
   -0.8767   -2.4581    0.0006 H   0  0  0  0  0  0  0  0  0  0  0  0
   -0.8766    2.4582    0.0004 H   0  0  0  0  0  0  0  0  0  0  0  0
    0.8789   -3.4706    0.0006 H   0  0  0  0  0  0  0  0  0  0  0  0
    0.8791    3.4706    0.0005 H   0  0  0  0  0  0  0  0  0  0  0  0
    6.2972   -1.2153   -0.0011 H   0  0  0  0  0  0  0  0  0  0  0  0
    6.2973    1.2151   -0.0010 H   0  0  0  0  0  0  0  0  0  0  0  0
    5.1121   -3.3397   -0.0005 H   0  0  0  0  0  0  0  0  0  0  0  0
    5.1122    3.3397   -0.0001 H   0  0  0  0  0  0  0  0  0  0  0  0
   -3.2878   -2.4790    0.0006 H   0  0  0  0  0  0  0  0  0  0  0  0
   -3.2878    2.4791    0.0006 H   0  0  0  0  0  0  0  0  0  0  0  0
    3.0071   -4.6024    0.0001 H   0  0  0  0  0  0  0  0  0  0  0  0
    3.0072    4.6023    0.0003 H   0  0  0  0  0  0  0  0  0  0  0  0
   -5.7657   -2.4808    0.0001 H   0  0  0  0  0  0  0  0  0  0  0  0
   -5.7658    2.4809   -0.0009 H   0  0  0  0  0  0  0  0  0  0  0  0
   -7.8910   -1.2393   -0.0008 H   0  0  0  0  0  0  0  0  0  0  0  0
   -7.8910    1.2392   -0.0016 H   0  0  0  0  0  0  0  0  0  0  0  0
  1  2  1  0  0  0  0
  1  5  1  0  0  0  0
  1  7  2  0  0  0  0
  2  6  1  0  0  0  0
  2  8  2  0  0  0  0
  3  4  1  0  0  0  0
  3  5  1  0  0  0  0
  3  9  2  0  0  0  0
  4  6  1  0  0  0  0
  4 10  2  0  0  0  0
  5 13  2  0  0  0  0
  6 14  2  0  0  0  0
  7 15  1  0  0  0  0
  7 17  1  0  0  0  0
  8 16  1  0  0  0  0
  8 18  1  0  0  0  0
  9 11  1  0  0  0  0
  9 29  1  0  0  0  0
 10 12  1  0  0  0  0
 10 30  1  0  0  0  0
 11 12  1  0  0  0  0
 11 19  2  0  0  0  0
 12 20  2  0  0  0  0
 13 21  1  0  0  0  0
 13 31  1  0  0  0  0
 14 22  1  0  0  0  0
 14 32  1  0  0  0  0
 15 16  2  0  0  0  0
 15 33  1  0  0  0  0
 16 34  1  0  0  0  0
 17 21  2  0  0  0  0
 17 35  1  0  0  0  0
 18 22  2  0  0  0  0
 18 36  1  0  0  0  0
 19 23  1  0  0  0  0
 19 37  1  0  0  0  0
 20 24  1  0  0  0  0
 20 38  1  0  0  0  0
 21 39  1  0  0  0  0
 22 40  1  0  0  0  0
 23 24  1  0  0  0  0
 23 25  2  0  0  0  0
 24 26  2  0  0  0  0
 25 27  1  0  0  0  0
 25 41  1  0  0  0  0
 26 28  1  0  0  0  0
 26 42  1  0  0  0  0
 27 28  2  0  0  0  0
 27 43  1  0  0  0  0
 28 44  1  0  0  0  0
M  END
> <PUBCHEM_COMPOUND_CID>
9130

> <PUBCHEM_CONFORMER_RMSD>
0.6

> <PUBCHEM_CONFORMER_DIVERSEORDER>
1

> <PUBCHEM_MMFF94_PARTIAL_CHARGES>
32
10 -0.15
13 -0.15
14 -0.15
15 -0.15
16 -0.15
17 -0.15
18 -0.15
19 -0.15
20 -0.15
21 -0.15
22 -0.15
25 -0.15
26 -0.15
27 -0.15
28 -0.15
29 0.15
30 0.15
31 0.15
32 0.15
33 0.15
34 0.15
35 0.15
36 0.15
37 0.15
38 0.15
39 0.15
40 0.15
41 0.15
42 0.15
43 0.15
44 0.15
9 -0.15

> <PUBCHEM_EFFECTIVE_ROTOR_COUNT>
0

> <PUBCHEM_PHARMACOPHORE_FEATURES>
7
6 1 2 3 4 5 6 rings
6 1 2 7 8 15 16 rings
6 1 5 7 13 17 21 rings
6 11 12 19 20 23 24 rings
6 2 6 8 14 18 22 rings
6 23 24 25 26 27 28 rings
6 3 4 9 10 11 12 rings

> <PUBCHEM_HEAVY_ATOM_COUNT>
28

> <PUBCHEM_ATOM_DEF_STEREO_COUNT>
0

> <PUBCHEM_ATOM_UDEF_STEREO_COUNT>
0

> <PUBCHEM_BOND_DEF_STEREO_COUNT>
0

> <PUBCHEM_BOND_UDEF_STEREO_COUNT>
0

> <PUBCHEM_ISOTOPIC_ATOM_COUNT>
0

> <PUBCHEM_COMPONENT_COUNT>
1

> <PUBCHEM_CACTVS_TAUTO_COUNT>
1

> <PUBCHEM_CONFORMER_ID>
000023AA00000001

> <PUBCHEM_MMFF94_ENERGY>
110.4705

> <PUBCHEM_FEATURE_SELFOVERLAP>
35.716

> <PUBCHEM_SHAPE_FINGERPRINT>
10165383 225 18271802360143831372
10411042 1 18050286161872531526
10595046 47 18334858286665066101
10693767 8 18114454665502215806
10835480 77 18341057393420951709
10967382 1 18410574016155238502
1100329 8 18337676300713046594
11135609 187 18339358544565885032
11578080 2 13756917340655803340
11719270 70 18410299082155237616
11963148 33 18341900636555322851
12107183 9 17902785598705424217
12166972 35 18186802508295866993
12236239 1 18040434395725975065
12403259 415 17988652904174527749
12730499 353 18339917126014612339
12788726 201 17313094285556327945
12838862 33 18337408062820312896
13009979 54 17678170710251836226
13140716 1 18267030453808609472
13402501 40 18343019990751443205
13533116 47 18334013895498684209
1361 2 18411982421097700546
13782708 43 17632016463387437299
13785724 45 17901095640211153014
138480 1 18338516464850647234
14170010 4 18410576188501523976
14341114 176 18409725188498564771
14790565 3 17907855102986585212
15183329 4 18410575106755230417
15196674 1 18410856564456957313
15250474 111 18115883927217394815
15439362 3 18123466073994127084
15927050 60 18119811301379176494
16120349 18 18410577284741551309
16992752 21 17763741393087120762
17492 89 18121218950750642542
17844677 252 18337103557980813897
1813 80 17060336344580576301
18681886 176 18334018298257088978
19427546 62 18268991977846254562
1979834 28 18041288763527210922
20028762 73 18260267456112296366
20511986 3 17894924983407884693
21033648 29 17274833467237818317
21033650 10 16127814218031535453
21133410 127 17916030066223458637
21197605 99 18266455404152489803
21267235 1 18336823195311196030
21279426 13 18269276936115373661
21859007 373 17559974275866400285
22149856 69 18267568145291621587
23522609 53 17823676635151993297
23559900 14 18410298012159728769
239999 70 18260260867700659358
24771293 8 18115889412370192280
255183 451 17971466549537813126
27425 322 16486406556612786008
3004659 81 18343582962533122472
335352 9 18410854344338654350
3411729 13 18342178821971147648
350125 39 18411136943916794949
3633792 109 18339368556709177725
3882209 13 16831537007410925475
4015057 19 18410582760666539753
4073 2 18130501929981696971
4093350 32 17313099757244253844
4144715 1 18342165709662670963
46194498 28 17775282759693086956
5104073 3 18413101776091491707
513532 50 18113606899002436300
6443956 14 18412260671013005236
8272917 22 18409446973206918118
9709674 26 18341609308986191531
9995097 60 18412265030193716493

> <PUBCHEM_SHAPE_MULTIPOLES>
576.23
15.18
3.54
0.62
21.82
0
0
0
-0.01
-5.28
0
0
0
0

> <PUBCHEM_SHAPE_SELFOVERLAP>
1370.51

> <PUBCHEM_SHAPE_VOLUME>
257.4

> <PUBCHEM_COORDINATE_TYPE>
2
5
10

$$$$

