47205187
  -OEChem-06241222582D

 42 42  0     1  0  0  0  0  0999 V2000
    5.4641    4.0670    0.0000 S   0  0  0  0  0  0  0  0  0  0  0  0
    4.5981   -2.4330    0.0000 O   0  0  0  0  0  0  0  0  0  0  0  0
    4.9641    4.9330    0.0000 O   0  0  0  0  0  0  0  0  0  0  0  0
    5.9641    3.2010    0.0000 O   0  0  0  0  0  0  0  0  0  0  0  0
    3.7320   -0.9330    0.0000 N   0  0  0  0  0  0  0  0  0  0  0  0
    4.5981    3.5670    0.0000 N   0  0  0  0  0  0  0  0  0  0  0  0
    4.5981   -0.4330    0.0000 C   0  0  3  0  0  0  0  0  0  0  0  0
    4.5981    0.5670    0.0000 C   0  0  0  0  0  0  0  0  0  0  0  0
    2.8660   -2.4330    0.0000 C   0  0  0  0  0  0  0  0  0  0  0  0
    2.8660   -3.4330    0.0000 C   0  0  0  0  0  0  0  0  0  0  0  0
    5.4641   -0.9330    0.0000 C   0  0  0  0  0  0  0  0  0  0  0  0
    3.7320   -1.9330    0.0000 C   0  0  0  0  0  0  0  0  0  0  0  0
    2.0000   -3.9330    0.0000 C   0  0  0  0  0  0  0  0  0  0  0  0
    5.4641    1.0670    0.0000 C   0  0  0  0  0  0  0  0  0  0  0  0
    3.7320    1.0670    0.0000 C   0  0  0  0  0  0  0  0  0  0  0  0
    4.5981    2.5670    0.0000 C   0  0  0  0  0  0  0  0  0  0  0  0
    5.4641    2.0670    0.0000 C   0  0  0  0  0  0  0  0  0  0  0  0
    3.7320    2.0670    0.0000 C   0  0  0  0  0  0  0  0  0  0  0  0
    2.0000   -4.9330    0.0000 C   0  0  0  0  0  0  0  0  0  0  0  0
    6.3301    4.5670    0.0000 C   0  0  0  0  0  0  0  0  0  0  0  0
    4.5981   -1.0530    0.0000 H   0  0  0  0  0  0  0  0  0  0  0  0
    2.6540   -1.8504    0.0000 H   0  0  0  0  0  0  0  0  0  0  0  0
    2.2554   -2.5407    0.0000 H   0  0  0  0  0  0  0  0  0  0  0  0
    3.0781   -4.0156    0.0000 H   0  0  0  0  0  0  0  0  0  0  0  0
    3.4766   -3.3254    0.0000 H   0  0  0  0  0  0  0  0  0  0  0  0
    3.1951   -0.6230    0.0000 H   0  0  0  0  0  0  0  0  0  0  0  0
    5.1541   -1.4700    0.0000 H   0  0  0  0  0  0  0  0  0  0  0  0
    6.0010   -1.2430    0.0000 H   0  0  0  0  0  0  0  0  0  0  0  0
    5.7741   -0.3961    0.0000 H   0  0  0  0  0  0  0  0  0  0  0  0
    1.7880   -3.3504    0.0000 H   0  0  0  0  0  0  0  0  0  0  0  0
    1.3894   -4.0407    0.0000 H   0  0  0  0  0  0  0  0  0  0  0  0
    6.0010    0.7570    0.0000 H   0  0  0  0  0  0  0  0  0  0  0  0
    3.1951    0.7570    0.0000 H   0  0  0  0  0  0  0  0  0  0  0  0
    6.0010    2.3770    0.0000 H   0  0  0  0  0  0  0  0  0  0  0  0
    3.1951    2.3770    0.0000 H   0  0  0  0  0  0  0  0  0  0  0  0
    1.3800   -4.9330    0.0000 H   0  0  0  0  0  0  0  0  0  0  0  0
    2.0000   -5.5530    0.0000 H   0  0  0  0  0  0  0  0  0  0  0  0
    2.6200   -4.9330    0.0000 H   0  0  0  0  0  0  0  0  0  0  0  0
    4.0611    3.8770    0.0000 H   0  0  0  0  0  0  0  0  0  0  0  0
    6.6401    4.0300    0.0000 H   0  0  0  0  0  0  0  0  0  0  0  0
    6.8671    4.8770    0.0000 H   0  0  0  0  0  0  0  0  0  0  0  0
    6.0201    5.1039    0.0000 H   0  0  0  0  0  0  0  0  0  0  0  0
  1  3  2  0  0  0  0
  1  4  2  0  0  0  0
  1  6  1  0  0  0  0
  1 20  1  0  0  0  0
  2 12  2  0  0  0  0
  5  7  1  0  0  0  0
  5 12  1  0  0  0  0
  5 26  1  0  0  0  0
  6 16  1  0  0  0  0
  6 39  1  0  0  0  0
  7  8  1  0  0  0  0
  7 11  1  0  0  0  0
  7 21  1  0  0  0  0
  8 14  2  0  0  0  0
  8 15  1  0  0  0  0
  9 10  1  0  0  0  0
  9 12  1  0  0  0  0
  9 22  1  0  0  0  0
  9 23  1  0  0  0  0
 10 13  1  0  0  0  0
 10 24  1  0  0  0  0
 10 25  1  0  0  0  0
 11 27  1  0  0  0  0
 11 28  1  0  0  0  0
 11 29  1  0  0  0  0
 13 19  1  0  0  0  0
 13 30  1  0  0  0  0
 13 31  1  0  0  0  0
 14 17  1  0  0  0  0
 14 32  1  0  0  0  0
 15 18  2  0  0  0  0
 15 33  1  0  0  0  0
 16 17  2  0  0  0  0
 16 18  1  0  0  0  0
 17 34  1  0  0  0  0
 18 35  1  0  0  0  0
 19 36  1  0  0  0  0
 19 37  1  0  0  0  0
 19 38  1  0  0  0  0
 20 40  1  0  0  0  0
 20 41  1  0  0  0  0
 20 42  1  0  0  0  0
M  END
> <PUBCHEM_COMPOUND_CID>
47205187

> <PUBCHEM_COMPOUND_CANONICALIZED>
1

> <PUBCHEM_CACTVS_COMPLEXITY>
395

> <PUBCHEM_CACTVS_HBOND_ACCEPTOR>
4

> <PUBCHEM_CACTVS_HBOND_DONOR>
2

> <PUBCHEM_CACTVS_ROTATABLE_BOND>
7

> <PUBCHEM_CACTVS_SUBSKEYS>
AAADceBzMABAAAAAAAAAAAAAAAAAAAAAAAAwAAAAAAAAAAABAAAAHgQQQAAADCjBmASywILAAAKIAiVSUHCCAAAgAgAIiIEIZIgIIDKAkZGEIAhglgCIyAcYgIAOCAAAAAAAAAAQAAAAAAAAAAAAAAAAAA==

> <PUBCHEM_IUPAC_OPENEYE_NAME>
N-[1-[4-(methanesulfonamido)phenyl]ethyl]pentanamide

> <PUBCHEM_IUPAC_CAS_NAME>
N-[1-[4-(methanesulfonamido)phenyl]ethyl]pentanamide

> <PUBCHEM_IUPAC_NAME>
N-[1-[4-(methanesulfonamido)phenyl]ethyl]pentanamide

> <PUBCHEM_IUPAC_SYSTEMATIC_NAME>
N-[1-[4-(methylsulfonylamino)phenyl]ethyl]pentanamide

> <PUBCHEM_IUPAC_TRADITIONAL_NAME>
N-[1-[4-(methanesulfonamido)phenyl]ethyl]valeramide

> <PUBCHEM_IUPAC_INCHI>
InChI=1S/C14H22N2O3S/c1-4-5-6-14(17)15-11(2)12-7-9-13(10-8-12)16-20(3,18)19/h7-11,16H,4-6H2,1-3H3,(H,15,17)

> <PUBCHEM_IUPAC_INCHIKEY>
KFOMOQKFURKUEV-UHFFFAOYSA-N

> <PUBCHEM_XLOGP3_AA>
1.8

> <PUBCHEM_EXACT_MASS>
298.135114

> <PUBCHEM_MOLECULAR_FORMULA>
C14H22N2O3S

> <PUBCHEM_MOLECULAR_WEIGHT>
298.40108

> <PUBCHEM_OPENEYE_CAN_SMILES>
CCCCC(=O)NC(C)C1=CC=C(C=C1)NS(=O)(=O)C

> <PUBCHEM_OPENEYE_ISO_SMILES>
CCCCC(=O)NC(C)C1=CC=C(C=C1)NS(=O)(=O)C

> <PUBCHEM_CACTVS_TPSA>
83.6

> <PUBCHEM_MONOISOTOPIC_WEIGHT>
298.135114

> <PUBCHEM_TOTAL_CHARGE>
0

> <PUBCHEM_HEAVY_ATOM_COUNT>
20

> <PUBCHEM_ATOM_DEF_STEREO_COUNT>
0

> <PUBCHEM_ATOM_UDEF_STEREO_COUNT>
1

> <PUBCHEM_BOND_DEF_STEREO_COUNT>
0

> <PUBCHEM_BOND_UDEF_STEREO_COUNT>
0

> <PUBCHEM_ISOTOPIC_ATOM_COUNT>
0

> <PUBCHEM_COMPONENT_COUNT>
1

> <PUBCHEM_CACTVS_TAUTO_COUNT>
2

> <PUBCHEM_COORDINATE_TYPE>
1
5
255

> <PUBCHEM_BONDANNOTATIONS>
14  17  8
15  18  8
16  17  8
16  18  8
7  11  3
8  14  8
8  15  8

$$$$

