3612
  -OEChem-06251223322D

152152  0     1  0  0  0  0  0999 V2000
   11.1305   -6.9050    0.0000 S   0  0  0  0  0  0  0  0  0  0  0  0
   11.5991    4.0950    0.0000 O   0  0  0  0  0  0  0  0  0  0  0  0
   14.3312    1.5950    0.0000 O   0  0  0  0  0  0  0  0  0  0  0  0
    8.8671    1.5950    0.0000 O   0  0  0  0  0  0  0  0  0  0  0  0
   13.8626   -5.4050    0.0000 O   0  0  0  0  0  0  0  0  0  0  0  0
    6.1350    4.0950    0.0000 O   0  0  0  0  0  0  0  0  0  0  0  0
   11.1305   -2.9050    0.0000 O   0  0  0  0  0  0  0  0  0  0  0  0
    2.5369    3.0950    0.0000 O   0  0  0  0  0  0  0  0  0  0  0  0
    6.1350    0.0950    0.0000 O   0  0  0  0  0  0  0  0  0  0  0  0
    3.4030    1.5950    0.0000 O   0  0  0  0  0  0  0  0  0  0  0  0
    5.2690    1.5950    0.0000 O   0  0  0  0  0  0  0  0  0  0  0  0
   13.8626   -1.4050    0.0000 O   0  0  0  0  0  0  0  0  0  0  0  0
    8.3985   -5.4050    0.0000 O   0  0  0  0  0  0  0  0  0  0  0  0
    5.6664   -2.9050    0.0000 O   0  0  0  0  0  0  0  0  0  0  0  0
    8.3985   -1.4050    0.0000 O   0  0  0  0  0  0  0  0  0  0  0  0
    9.2645   -2.9050    0.0000 O   0  0  0  0  0  0  0  0  0  0  0  0
   10.5991    2.5950    0.0000 N   0  0  0  0  0  0  0  0  0  0  0  0
   13.3312    3.0950    0.0000 N   0  0  0  0  0  0  0  0  0  0  0  0
   16.0632    2.5950    0.0000 N   0  0  0  0  0  0  0  0  0  0  0  0
    7.8671    3.0950    0.0000 N   0  0  0  0  0  0  0  0  0  0  0  0
    5.1350    2.5950    0.0000 N   0  0  0  0  0  0  0  0  0  0  0  0
   12.1305   -4.4050    0.0000 N   0  0  0  0  0  0  0  0  0  0  0  0
    9.3985   -3.9050    0.0000 N   0  0  0  0  0  0  0  0  0  0  0  0
   16.9292    7.0950    0.0000 N   0  0  0  0  0  0  0  0  0  0  0  0
    6.6664   -4.4050    0.0000 N   0  0  0  0  0  0  0  0  0  0  0  0
   14.7286   -2.9050    0.0000 N   0  0  0  0  0  0  0  0  0  0  0  0
    3.9344   -3.9050    0.0000 N   0  0  0  0  0  0  0  0  0  0  0  0
    3.0208   -5.4983    0.0000 N   0  0  0  0  0  0  0  0  0  0  0  0
    2.8517   -7.1074    0.0000 N   0  0  0  0  0  0  0  0  0  0  0  0
   12.4651    2.5950    0.0000 C   0  0  3  0  0  0  0  0  0  0  0  0
    9.7331    3.0950    0.0000 C   0  0  3  0  0  0  0  0  0  0  0  0
   12.4651    1.5950    0.0000 C   0  0  0  0  0  0  0  0  0  0  0  0
    9.7331    4.0950    0.0000 C   0  0  0  0  0  0  0  0  0  0  0  0
    8.8671    4.5950    0.0000 C   0  0  0  0  0  0  0  0  0  0  0  0
   15.1972    3.0950    0.0000 C   0  0  3  0  0  0  0  0  0  0  0  0
   11.5991    3.0950    0.0000 C   0  0  0  0  0  0  0  0  0  0  0  0
   15.1972    4.0950    0.0000 C   0  0  0  0  0  0  0  0  0  0  0  0
   14.3312    2.5950    0.0000 C   0  0  0  0  0  0  0  0  0  0  0  0
    8.8671    2.5950    0.0000 C   0  0  0  0  0  0  0  0  0  0  0  0
   16.0632    4.5950    0.0000 C   0  0  0  0  0  0  0  0  0  0  0  0
   13.3312    1.0950    0.0000 C   0  0  0  0  0  0  0  0  0  0  0  0
   11.5991    1.0950    0.0000 C   0  0  0  0  0  0  0  0  0  0  0  0
    8.8671    5.5950    0.0000 C   0  0  0  0  0  0  0  0  0  0  0  0
    8.0010    4.0950    0.0000 C   0  0  0  0  0  0  0  0  0  0  0  0
    7.0010    2.5950    0.0000 C   0  0  3  0  0  0  0  0  0  0  0  0
   16.0632    5.5950    0.0000 C   0  0  0  0  0  0  0  0  0  0  0  0
   12.9965   -3.9050    0.0000 C   0  0  3  0  0  0  0  0  0  0  0  0
   13.8626   -4.4050    0.0000 C   0  0  0  0  0  0  0  0  0  0  0  0
    4.2690    3.0950    0.0000 C   0  0  3  0  0  0  0  0  0  0  0  0
    4.2690    4.0950    0.0000 C   0  0  0  0  0  0  0  0  0  0  0  0
    7.0010    1.5950    0.0000 C   0  0  0  0  0  0  0  0  0  0  0  0
    6.1350    3.0950    0.0000 C   0  0  0  0  0  0  0  0  0  0  0  0
    3.4030    4.5950    0.0000 C   0  0  0  0  0  0  0  0  0  0  0  0
   16.9292    6.0950    0.0000 C   0  0  0  0  0  0  0  0  0  0  0  0
   12.9965   -2.9050    0.0000 C   0  0  0  0  0  0  0  0  0  0  0  0
   10.2645   -4.4050    0.0000 C   0  0  3  0  0  0  0  0  0  0  0  0
   11.1305   -3.9050    0.0000 C   0  0  0  0  0  0  0  0  0  0  0  0
   10.2645   -5.4050    0.0000 C   0  0  0  0  0  0  0  0  0  0  0  0
    3.4030    5.5950    0.0000 C   0  0  0  0  0  0  0  0  0  0  0  0
    2.5369    4.0950    0.0000 C   0  0  0  0  0  0  0  0  0  0  0  0
    3.4030    2.5950    0.0000 C   0  0  0  0  0  0  0  0  0  0  0  0
    6.1350    1.0950    0.0000 C   0  0  0  0  0  0  0  0  0  0  0  0
   13.8626   -2.4050    0.0000 C   0  0  0  0  0  0  0  0  0  0  0  0
    7.5324   -3.9050    0.0000 C   0  0  3  0  0  0  0  0  0  0  0  0
   11.1305   -5.9050    0.0000 C   0  0  0  0  0  0  0  0  0  0  0  0
    8.3985   -4.4050    0.0000 C   0  0  0  0  0  0  0  0  0  0  0  0
    7.5324   -2.9050    0.0000 C   0  0  0  0  0  0  0  0  0  0  0  0
    4.8004   -4.4050    0.0000 C   0  0  3  0  0  0  0  0  0  0  0  0
    5.6664   -3.9050    0.0000 C   0  0  0  0  0  0  0  0  0  0  0  0
    4.8004   -5.4050    0.0000 C   0  0  0  0  0  0  0  0  0  0  0  0
    8.3985   -2.4050    0.0000 C   0  0  0  0  0  0  0  0  0  0  0  0
    3.9344   -5.9050    0.0000 C   0  0  0  0  0  0  0  0  0  0  0  0
   11.9965   -7.4050    0.0000 C   0  0  0  0  0  0  0  0  0  0  0  0
    3.8298   -6.8995    0.0000 C   0  0  0  0  0  0  0  0  0  0  0  0
    2.3517   -6.2414    0.0000 C   0  0  0  0  0  0  0  0  0  0  0  0
   13.0021    2.2850    0.0000 H   0  0  0  0  0  0  0  0  0  0  0  0
   10.2700    3.4050    0.0000 H   0  0  0  0  0  0  0  0  0  0  0  0
   11.9282    1.9050    0.0000 H   0  0  0  0  0  0  0  0  0  0  0  0
   10.3437    3.9873    0.0000 H   0  0  0  0  0  0  0  0  0  0  0  0
    9.9451    4.6776    0.0000 H   0  0  0  0  0  0  0  0  0  0  0  0
    8.3301    4.9050    0.0000 H   0  0  0  0  0  0  0  0  0  0  0  0
   15.1972    2.4750    0.0000 H   0  0  0  0  0  0  0  0  0  0  0  0
   11.1360    2.2850    0.0000 H   0  0  0  0  0  0  0  0  0  0  0  0
   13.8681    3.4050    0.0000 H   0  0  0  0  0  0  0  0  0  0  0  0
   14.9851    4.6776    0.0000 H   0  0  0  0  0  0  0  0  0  0  0  0
   14.5866    3.9873    0.0000 H   0  0  0  0  0  0  0  0  0  0  0  0
   16.2753    4.0124    0.0000 H   0  0  0  0  0  0  0  0  0  0  0  0
   16.6738    4.7027    0.0000 H   0  0  0  0  0  0  0  0  0  0  0  0
   13.0212    0.5581    0.0000 H   0  0  0  0  0  0  0  0  0  0  0  0
   13.8681    0.7850    0.0000 H   0  0  0  0  0  0  0  0  0  0  0  0
   13.6412    1.6319    0.0000 H   0  0  0  0  0  0  0  0  0  0  0  0
   11.2891    1.6319    0.0000 H   0  0  0  0  0  0  0  0  0  0  0  0
   11.0622    0.7850    0.0000 H   0  0  0  0  0  0  0  0  0  0  0  0
   11.9091    0.5581    0.0000 H   0  0  0  0  0  0  0  0  0  0  0  0
    9.4871    5.5950    0.0000 H   0  0  0  0  0  0  0  0  0  0  0  0
    7.6910    4.6319    0.0000 H   0  0  0  0  0  0  0  0  0  0  0  0
    7.4641    3.7850    0.0000 H   0  0  0  0  0  0  0  0  0  0  0  0
    8.3110    3.5581    0.0000 H   0  0  0  0  0  0  0  0  0  0  0  0
    8.8671    6.2150    0.0000 H   0  0  0  0  0  0  0  0  0  0  0  0
    8.2471    5.5950    0.0000 H   0  0  0  0  0  0  0  0  0  0  0  0
   16.6001    2.2850    0.0000 H   0  0  0  0  0  0  0  0  0  0  0  0
    7.5380    2.2850    0.0000 H   0  0  0  0  0  0  0  0  0  0  0  0
    8.4040    3.4050    0.0000 H   0  0  0  0  0  0  0  0  0  0  0  0
   15.8512    6.1776    0.0000 H   0  0  0  0  0  0  0  0  0  0  0  0
   15.4526    5.4873    0.0000 H   0  0  0  0  0  0  0  0  0  0  0  0
   12.4596   -3.5950    0.0000 H   0  0  0  0  0  0  0  0  0  0  0  0
    4.8059    3.4050    0.0000 H   0  0  0  0  0  0  0  0  0  0  0  0
    4.8796    3.9873    0.0000 H   0  0  0  0  0  0  0  0  0  0  0  0
    4.4810    4.6776    0.0000 H   0  0  0  0  0  0  0  0  0  0  0  0
    7.2131    1.0124    0.0000 H   0  0  0  0  0  0  0  0  0  0  0  0
    7.6116    1.7027    0.0000 H   0  0  0  0  0  0  0  0  0  0  0  0
    2.8660    4.9050    0.0000 H   0  0  0  0  0  0  0  0  0  0  0  0
   17.1413    5.5124    0.0000 H   0  0  0  0  0  0  0  0  0  0  0  0
   17.5398    6.2027    0.0000 H   0  0  0  0  0  0  0  0  0  0  0  0
    5.6720    2.2850    0.0000 H   0  0  0  0  0  0  0  0  0  0  0  0
   12.7845   -2.3224    0.0000 H   0  0  0  0  0  0  0  0  0  0  0  0
   12.3860   -3.0127    0.0000 H   0  0  0  0  0  0  0  0  0  0  0  0
   12.6675   -4.7150    0.0000 H   0  0  0  0  0  0  0  0  0  0  0  0
    9.7276   -4.7150    0.0000 H   0  0  0  0  0  0  0  0  0  0  0  0
    9.6539   -5.2973    0.0000 H   0  0  0  0  0  0  0  0  0  0  0  0
   10.0524   -5.9876    0.0000 H   0  0  0  0  0  0  0  0  0  0  0  0
    2.2269    4.6319    0.0000 H   0  0  0  0  0  0  0  0  0  0  0  0
    2.0000    3.7850    0.0000 H   0  0  0  0  0  0  0  0  0  0  0  0
    2.8469    3.5581    0.0000 H   0  0  0  0  0  0  0  0  0  0  0  0
    4.0230    5.5950    0.0000 H   0  0  0  0  0  0  0  0  0  0  0  0
    3.4030    6.2150    0.0000 H   0  0  0  0  0  0  0  0  0  0  0  0
    2.7830    5.5950    0.0000 H   0  0  0  0  0  0  0  0  0  0  0  0
    9.9354   -3.5950    0.0000 H   0  0  0  0  0  0  0  0  0  0  0  0
   17.4662    7.4050    0.0000 H   0  0  0  0  0  0  0  0  0  0  0  0
   16.3923    7.4050    0.0000 H   0  0  0  0  0  0  0  0  0  0  0  0
    7.5324   -4.5250    0.0000 H   0  0  0  0  0  0  0  0  0  0  0  0
   11.7411   -6.0127    0.0000 H   0  0  0  0  0  0  0  0  0  0  0  0
   11.3426   -5.3224    0.0000 H   0  0  0  0  0  0  0  0  0  0  0  0
    7.3204   -2.3224    0.0000 H   0  0  0  0  0  0  0  0  0  0  0  0
    6.9219   -3.0127    0.0000 H   0  0  0  0  0  0  0  0  0  0  0  0
    7.2034   -4.7150    0.0000 H   0  0  0  0  0  0  0  0  0  0  0  0
    4.2635   -4.7150    0.0000 H   0  0  0  0  0  0  0  0  0  0  0  0
   15.2655   -2.5950    0.0000 H   0  0  0  0  0  0  0  0  0  0  0  0
   14.7286   -3.5250    0.0000 H   0  0  0  0  0  0  0  0  0  0  0  0
    2.0000    2.7850    0.0000 H   0  0  0  0  0  0  0  0  0  0  0  0
    5.5981   -0.2150    0.0000 H   0  0  0  0  0  0  0  0  0  0  0  0
    5.0124   -5.9876    0.0000 H   0  0  0  0  0  0  0  0  0  0  0  0
    5.4110   -5.2973    0.0000 H   0  0  0  0  0  0  0  0  0  0  0  0
   11.6865   -7.9419    0.0000 H   0  0  0  0  0  0  0  0  0  0  0  0
   12.5335   -7.7150    0.0000 H   0  0  0  0  0  0  0  0  0  0  0  0
   12.3065   -6.8681    0.0000 H   0  0  0  0  0  0  0  0  0  0  0  0
    3.9344   -3.2850    0.0000 H   0  0  0  0  0  0  0  0  0  0  0  0
    4.4713   -4.2150    0.0000 H   0  0  0  0  0  0  0  0  0  0  0  0
    2.8919   -4.8918    0.0000 H   0  0  0  0  0  0  0  0  0  0  0  0
    4.2906   -7.3144    0.0000 H   0  0  0  0  0  0  0  0  0  0  0  0
    8.9354   -1.0950    0.0000 H   0  0  0  0  0  0  0  0  0  0  0  0
    1.7351   -6.1766    0.0000 H   0  0  0  0  0  0  0  0  0  0  0  0
  1 65  1  0  0  0  0
  1 73  1  0  0  0  0
  2 36  2  0  0  0  0
  3 38  2  0  0  0  0
  4 39  2  0  0  0  0
  5 48  2  0  0  0  0
  6 52  2  0  0  0  0
  7 57  2  0  0  0  0
  8 61  1  0  0  0  0
  8140  1  0  0  0  0
  9 62  1  0  0  0  0
  9141  1  0  0  0  0
 10 61  2  0  0  0  0
 11 62  2  0  0  0  0
 12 63  2  0  0  0  0
 13 66  2  0  0  0  0
 14 69  2  0  0  0  0
 15 71  1  0  0  0  0
 15151  1  0  0  0  0
 16 71  2  0  0  0  0
 17 31  1  0  0  0  0
 17 36  1  0  0  0  0
 17 83  1  0  0  0  0
 18 30  1  0  0  0  0
 18 38  1  0  0  0  0
 18 84  1  0  0  0  0
 19 35  1  0  0  0  0
 19 48  1  0  0  0  0
 19101  1  0  0  0  0
 20 39  1  0  0  0  0
 20 45  1  0  0  0  0
 20103  1  0  0  0  0
 21 49  1  0  0  0  0
 21 52  1  0  0  0  0
 21115  1  0  0  0  0
 22 47  1  0  0  0  0
 22 57  1  0  0  0  0
 22118  1  0  0  0  0
 23 56  1  0  0  0  0
 23 66  1  0  0  0  0
 23128  1  0  0  0  0
 24 54  1  0  0  0  0
 24129  1  0  0  0  0
 24130  1  0  0  0  0
 25 64  1  0  0  0  0
 25 69  1  0  0  0  0
 25136  1  0  0  0  0
 26 63  1  0  0  0  0
 26138  1  0  0  0  0
 26139  1  0  0  0  0
 27 68  1  0  0  0  0
 27147  1  0  0  0  0
 27148  1  0  0  0  0
 28 72  1  0  0  0  0
 28 75  1  0  0  0  0
 28149  1  0  0  0  0
 29 74  1  0  0  0  0
 29 75  2  0  0  0  0
 30 32  1  0  0  0  0
 30 36  1  0  0  0  0
 30 76  1  0  0  0  0
 31 33  1  0  0  0  0
 31 39  1  0  0  0  0
 31 77  1  0  0  0  0
 32 41  1  0  0  0  0
 32 42  1  0  0  0  0
 32 78  1  0  0  0  0
 33 34  1  0  0  0  0
 33 79  1  0  0  0  0
 33 80  1  0  0  0  0
 34 43  1  0  0  0  0
 34 44  1  0  0  0  0
 34 81  1  0  0  0  0
 35 37  1  0  0  0  0
 35 38  1  0  0  0  0
 35 82  1  0  0  0  0
 37 40  1  0  0  0  0
 37 85  1  0  0  0  0
 37 86  1  0  0  0  0
 40 46  1  0  0  0  0
 40 87  1  0  0  0  0
 40 88  1  0  0  0  0
 41 89  1  0  0  0  0
 41 90  1  0  0  0  0
 41 91  1  0  0  0  0
 42 92  1  0  0  0  0
 42 93  1  0  0  0  0
 42 94  1  0  0  0  0
 43 95  1  0  0  0  0
 43 99  1  0  0  0  0
 43100  1  0  0  0  0
 44 96  1  0  0  0  0
 44 97  1  0  0  0  0
 44 98  1  0  0  0  0
 45 51  1  0  0  0  0
 45 52  1  0  0  0  0
 45102  1  0  0  0  0
 46 54  1  0  0  0  0
 46104  1  0  0  0  0
 46105  1  0  0  0  0
 47 48  1  0  0  0  0
 47 55  1  0  0  0  0
 47106  1  0  0  0  0
 49 50  1  0  0  0  0
 49 61  1  0  0  0  0
 49107  1  0  0  0  0
 50 53  1  0  0  0  0
 50108  1  0  0  0  0
 50109  1  0  0  0  0
 51 62  1  0  0  0  0
 51110  1  0  0  0  0
 51111  1  0  0  0  0
 53 59  1  0  0  0  0
 53 60  1  0  0  0  0
 53112  1  0  0  0  0
 54113  1  0  0  0  0
 54114  1  0  0  0  0
 55 63  1  0  0  0  0
 55116  1  0  0  0  0
 55117  1  0  0  0  0
 56 57  1  0  0  0  0
 56 58  1  0  0  0  0
 56119  1  0  0  0  0
 58 65  1  0  0  0  0
 58120  1  0  0  0  0
 58121  1  0  0  0  0
 59125  1  0  0  0  0
 59126  1  0  0  0  0
 59127  1  0  0  0  0
 60122  1  0  0  0  0
 60123  1  0  0  0  0
 60124  1  0  0  0  0
 64 66  1  0  0  0  0
 64 67  1  0  0  0  0
 64131  1  0  0  0  0
 65132  1  0  0  0  0
 65133  1  0  0  0  0
 67 71  1  0  0  0  0
 67134  1  0  0  0  0
 67135  1  0  0  0  0
 68 69  1  0  0  0  0
 68 70  1  0  0  0  0
 68137  1  0  0  0  0
 70 72  1  0  0  0  0
 70142  1  0  0  0  0
 70143  1  0  0  0  0
 72 74  2  0  0  0  0
 73144  1  0  0  0  0
 73145  1  0  0  0  0
 73146  1  0  0  0  0
 74150  1  0  0  0  0
 75152  1  0  0  0  0
M  END
> <PUBCHEM_COMPOUND_CID>
3612

> <PUBCHEM_COMPOUND_CANONICALIZED>
1

> <PUBCHEM_CACTVS_COMPLEXITY>
1980

> <PUBCHEM_CACTVS_HBOND_ACCEPTOR>
19

> <PUBCHEM_CACTVS_HBOND_DONOR>
15

> <PUBCHEM_CACTVS_ROTATABLE_BOND>
37

> <PUBCHEM_CACTVS_SUBSKEYS>
AAADcfB//ABAAAAAAAAAAAAAAAAAAWAAAAAAAAAAAAAAAAABgAAAHgQQCAAADSjF1gSvmBbJkgioARX3fAAAgC2xErABUYG4cAiCaBpg2SGUQAAOlgLQQCG/CQAMAAAAAAAAAAAAAAAAAAAAAAAAAAAAAA==

> <PUBCHEM_IUPAC_OPENEYE_NAME>
2-[[2-[[2-[[2-[[6-amino-2-[[4-amino-2-[[2-[[2-[[2-amino-3-(1H-imidazol-5-yl)propanoyl]amino]-3-carboxy-propanoyl]amino]-4-methylsulfanyl-butanoyl]amino]-4-oxo-butanoyl]amino]hexanoyl]amino]-3-methyl-butanoyl]amino]-4-methyl-pentanoyl]amino]-3-carboxy-propanoyl]amino]-4-methyl-pentanoic acid

> <PUBCHEM_IUPAC_CAS_NAME>
2-[[2-[[2-[[2-[[6-amino-2-[[4-amino-2-[[2-[[2-[[2-amino-3-(1H-imidazol-5-yl)-1-oxopropyl]amino]-3-carboxy-1-oxopropyl]amino]-4-(methylthio)-1-oxobutyl]amino]-1,4-dioxobutyl]amino]-1-oxohexyl]amino]-3-methyl-1-oxobutyl]amino]-4-methyl-1-oxopentyl]amino]-3-carboxy-1-oxopropyl]amino]-4-methylpentanoic acid

> <PUBCHEM_IUPAC_NAME>
2-[[2-[[2-[[2-[[6-amino-2-[[4-amino-2-[[2-[[2-[[2-amino-3-(1H-imidazol-5-yl)propanoyl]amino]-3-carboxypropanoyl]amino]-4-methylsulfanylbutanoyl]amino]-4-oxobutanoyl]amino]hexanoyl]amino]-3-methylbutanoyl]amino]-4-methylpentanoyl]amino]-3-carboxypropanoyl]amino]-4-methylpentanoic acid

> <PUBCHEM_IUPAC_SYSTEMATIC_NAME>
2-[[2-[[2-[[2-[[6-azanyl-2-[[4-azanyl-2-[[2-[[2-[[2-azanyl-3-(1H-imidazol-5-yl)propanoyl]amino]-4-oxidanyl-4-oxidanylidene-butanoyl]amino]-4-methylsulfanyl-butanoyl]amino]-4-oxidanylidene-butanoyl]amino]hexanoyl]amino]-3-methyl-butanoyl]amino]-4-methyl-pentanoyl]amino]-4-oxidanyl-4-oxidanylidene-butanoyl]amino]-4-methyl-pentanoic acid

> <PUBCHEM_IUPAC_TRADITIONAL_NAME>
2-[[2-[[2-[[2-[[6-amino-2-[[4-amino-2-[[2-[[2-[[2-amino-3-(1H-imidazol-5-yl)propanoyl]amino]-3-carboxy-propanoyl]amino]-4-(methylthio)butanoyl]amino]-4-keto-butanoyl]amino]hexanoyl]amino]-3-methyl-butanoyl]amino]-4-methyl-pentanoyl]amino]-3-carboxy-propanoyl]amino]-4-methyl-valeric acid

> <PUBCHEM_IUPAC_INCHI>
InChI=1S/C46H77N13O15S/c1-22(2)14-29(41(68)56-32(19-36(63)64)44(71)58-33(46(73)74)15-23(3)4)57-45(72)37(24(5)6)59-40(67)27(10-8-9-12-47)52-42(69)30(17-34(49)60)55-39(66)28(11-13-75-7)53-43(70)31(18-35(61)62)54-38(65)26(48)16-25-20-50-21-51-25/h20-24,26-33,37H,8-19,47-48H2,1-7H3,(H2,49,60)(H,50,51)(H,52,69)(H,53,70)(H,54,65)(H,55,66)(H,56,68)(H,57,72)(H,58,71)(H,59,67)(H,61,62)(H,63,64)(H,73,74)

> <PUBCHEM_IUPAC_INCHIKEY>
MSFJEXCKZQTGKA-UHFFFAOYSA-N

> <PUBCHEM_XLOGP3_AA>
-6.8

> <PUBCHEM_EXACT_MASS>
1083.53828

> <PUBCHEM_MOLECULAR_FORMULA>
C46H77N13O15S

> <PUBCHEM_MOLECULAR_WEIGHT>
1084.24668

> <PUBCHEM_OPENEYE_CAN_SMILES>
CC(C)CC(C(=O)NC(CC(=O)O)C(=O)NC(CC(C)C)C(=O)O)NC(=O)C(C(C)C)NC(=O)C(CCCCN)NC(=O)C(CC(=O)N)NC(=O)C(CCSC)NC(=O)C(CC(=O)O)NC(=O)C(CC1=CN=CN1)N

> <PUBCHEM_OPENEYE_ISO_SMILES>
CC(C)CC(C(=O)NC(CC(=O)O)C(=O)NC(CC(C)C)C(=O)O)NC(=O)C(C(C)C)NC(=O)C(CCCCN)NC(=O)C(CC(=O)N)NC(=O)C(CCSC)NC(=O)C(CC(=O)O)NC(=O)C(CC1=CN=CN1)N

> <PUBCHEM_CACTVS_TPSA>
494

> <PUBCHEM_MONOISOTOPIC_WEIGHT>
1083.53828

> <PUBCHEM_TOTAL_CHARGE>
0

> <PUBCHEM_HEAVY_ATOM_COUNT>
75

> <PUBCHEM_ATOM_DEF_STEREO_COUNT>
0

> <PUBCHEM_ATOM_UDEF_STEREO_COUNT>
9

> <PUBCHEM_BOND_DEF_STEREO_COUNT>
0

> <PUBCHEM_BOND_UDEF_STEREO_COUNT>
0

> <PUBCHEM_ISOTOPIC_ATOM_COUNT>
0

> <PUBCHEM_COMPONENT_COUNT>
1

> <PUBCHEM_CACTVS_TAUTO_COUNT>
1001

> <PUBCHEM_COORDINATE_TYPE>
1
5
255

> <PUBCHEM_BONDANNOTATIONS>
68  27  3
28  72  8
28  75  8
29  74  8
29  75  8
30  32  3
31  33  3
35  37  3
45  51  3
47  55  3
49  50  3
56  58  3
64  67  3
72  74  8

$$$$

