17396319
  -OEChem-06241222553D

 39 41  0     0  0  0  0  0  0999 V2000
   -5.4538    0.8454   -0.3105 F   0  0  0  0  0  0  0  0  0  0  0  0
    2.3487   -5.0952   -0.6557 F   0  0  0  0  0  0  0  0  0  0  0  0
   -1.4079    1.2247   -0.3623 O   0  0  0  0  0  0  0  0  0  0  0  0
   -3.2434    1.6951   -1.6543 O   0  0  0  0  0  0  0  0  0  0  0  0
    3.3371    0.2388    0.4510 N   0  0  0  0  0  0  0  0  0  0  0  0
    1.3433    1.2527   -0.2531 N   0  0  0  0  0  0  0  0  0  0  0  0
    1.1000    3.6305   -0.0421 N   0  0  0  0  0  0  0  0  0  0  0  0
    3.1290    2.5644    0.6681 N   0  0  0  0  0  0  0  0  0  0  0  0
    2.8614    4.8861    0.8635 N   0  0  0  0  0  0  0  0  0  0  0  0
    3.0859   -1.1171    0.1694 C   0  0  0  0  0  0  0  0  0  0  0  0
   -0.7098    2.3169   -0.9714 C   0  0  0  0  0  0  0  0  0  0  0  0
    0.6681    2.4059   -0.3842 C   0  0  0  0  0  0  0  0  0  0  0  0
    2.5659    1.4089    0.2798 C   0  0  0  0  0  0  0  0  0  0  0  0
   -3.2939   -0.1221   -0.1039 C   0  0  0  0  0  0  0  0  0  0  0  0
    4.1410   -1.9683   -0.1596 C   0  0  0  0  0  0  0  0  0  0  0  0
    1.7820   -1.6100    0.2200 C   0  0  0  0  0  0  0  0  0  0  0  0
   -2.6915    1.0080   -0.7933 C   0  0  0  0  0  0  0  0  0  0  0  0
    3.8921   -3.3121   -0.4380 C   0  0  0  0  0  0  0  0  0  0  0  0
    1.5331   -2.9538   -0.0585 C   0  0  0  0  0  0  0  0  0  0  0  0
   -4.6714   -0.1582    0.1123 C   0  0  0  0  0  0  0  0  0  0  0  0
   -2.4904   -1.1721    0.3406 C   0  0  0  0  0  0  0  0  0  0  0  0
    2.3383    3.6328    0.4771 C   0  0  0  0  0  0  0  0  0  0  0  0
    2.5882   -3.8050   -0.3876 C   0  0  0  0  0  0  0  0  0  0  0  0
   -5.2454   -1.2441    0.7733 C   0  0  0  0  0  0  0  0  0  0  0  0
   -3.0645   -2.2581    1.0015 C   0  0  0  0  0  0  0  0  0  0  0  0
   -4.4419   -2.2941    1.2180 C   0  0  0  0  0  0  0  0  0  0  0  0
   -1.2604    3.2468   -0.7887 H   0  0  0  0  0  0  0  0  0  0  0  0
   -0.6246    2.1450   -2.0502 H   0  0  0  0  0  0  0  0  0  0  0  0
    4.2930    0.4408    0.7285 H   0  0  0  0  0  0  0  0  0  0  0  0
    5.1615   -1.5965   -0.2033 H   0  0  0  0  0  0  0  0  0  0  0  0
    0.9412   -0.9938    0.5176 H   0  0  0  0  0  0  0  0  0  0  0  0
    4.7131   -3.9750   -0.6946 H   0  0  0  0  0  0  0  0  0  0  0  0
    0.5194   -3.3406   -0.0092 H   0  0  0  0  0  0  0  0  0  0  0  0
   -1.4184   -1.1799    0.1715 H   0  0  0  0  0  0  0  0  0  0  0  0
   -6.3179   -1.2721    0.9413 H   0  0  0  0  0  0  0  0  0  0  0  0
   -2.4393   -3.0776    1.3441 H   0  0  0  0  0  0  0  0  0  0  0  0
   -4.8890   -3.1401    1.7317 H   0  0  0  0  0  0  0  0  0  0  0  0
    3.7899    4.9365    1.2593 H   0  0  0  0  0  0  0  0  0  0  0  0
    2.3016    5.7181    0.7384 H   0  0  0  0  0  0  0  0  0  0  0  0
  1 20  1  0  0  0  0
  2 23  1  0  0  0  0
  3 11  1  0  0  0  0
  3 17  1  0  0  0  0
  4 17  2  0  0  0  0
  5 10  1  0  0  0  0
  5 13  1  0  0  0  0
  5 29  1  0  0  0  0
  6 12  1  0  0  0  0
  6 13  2  0  0  0  0
  7 12  2  0  0  0  0
  7 22  1  0  0  0  0
  8 13  1  0  0  0  0
  8 22  2  0  0  0  0
  9 22  1  0  0  0  0
  9 38  1  0  0  0  0
  9 39  1  0  0  0  0
 10 15  2  0  0  0  0
 10 16  1  0  0  0  0
 11 12  1  0  0  0  0
 11 27  1  0  0  0  0
 11 28  1  0  0  0  0
 14 17  1  0  0  0  0
 14 20  1  0  0  0  0
 14 21  2  0  0  0  0
 15 18  1  0  0  0  0
 15 30  1  0  0  0  0
 16 19  2  0  0  0  0
 16 31  1  0  0  0  0
 18 23  2  0  0  0  0
 18 32  1  0  0  0  0
 19 23  1  0  0  0  0
 19 33  1  0  0  0  0
 20 24  2  0  0  0  0
 21 25  1  0  0  0  0
 21 34  1  0  0  0  0
 24 26  1  0  0  0  0
 24 35  1  0  0  0  0
 25 26  2  0  0  0  0
 25 36  1  0  0  0  0
 26 37  1  0  0  0  0
M  END
> <PUBCHEM_COMPOUND_CID>
17396319

> <PUBCHEM_CONFORMER_RMSD>
1.2

> <PUBCHEM_CONFORMER_DIVERSEORDER>
1
78
31
47
9
72
38
69
60
45
32
42
66
20
39
58
68
13
46
10
63
55
82
29
52
71
26
67
40
19
15
79
65
54
76
14
56
49
27
28
75
61
3
83
50
62
12
23
64
41
43
33
17
7
34
4
30
53
21
57
37
22
11
77
73
8
81
59
16
2
24
25
44
51
48
18
6
70
74
5
80
36
35

> <PUBCHEM_MMFF94_PARTIAL_CHARGES>
37
1 -0.19
10 0.1
11 0.42
12 0.48
13 0.72
14 0.09
15 -0.15
16 -0.15
17 0.63
18 -0.15
19 -0.15
2 -0.19
20 0.19
21 -0.15
22 0.72
23 0.19
24 -0.15
25 -0.15
26 -0.15
29 0.4
3 -0.43
30 0.15
31 0.15
32 0.15
33 0.15
34 0.15
35 0.15
36 0.15
37 0.15
38 0.4
39 0.4
4 -0.57
5 -0.6
6 -0.62
7 -0.62
8 -0.62
9 -0.9

> <PUBCHEM_EFFECTIVE_ROTOR_COUNT>
6

> <PUBCHEM_PHARMACOPHORE_FEATURES>
8
1 4 acceptor
1 5 donor
1 9 donor
4 5 6 8 13 cation
4 7 8 9 22 cation
6 10 15 16 18 19 23 rings
6 14 20 21 24 25 26 rings
6 6 7 8 12 13 22 rings

> <PUBCHEM_HEAVY_ATOM_COUNT>
26

> <PUBCHEM_ATOM_DEF_STEREO_COUNT>
0

> <PUBCHEM_ATOM_UDEF_STEREO_COUNT>
0

> <PUBCHEM_BOND_DEF_STEREO_COUNT>
0

> <PUBCHEM_BOND_UDEF_STEREO_COUNT>
0

> <PUBCHEM_ISOTOPIC_ATOM_COUNT>
0

> <PUBCHEM_COMPONENT_COUNT>
1

> <PUBCHEM_CACTVS_TAUTO_COUNT>
9

> <PUBCHEM_CONFORMER_ID>
0109725F00000001

> <PUBCHEM_MMFF94_ENERGY>
78.6918

> <PUBCHEM_FEATURE_SELFOVERLAP>
40.638

> <PUBCHEM_SHAPE_FINGERPRINT>
114674 6 18343582919341253050
12107183 9 18117828027295147049
12553582 1 18050573138131817816
12788726 201 17547298160226985618
13402501 40 18343581845562518482
13533116 47 18408321060927019353
1361 2 17978792312014031587
138480 1 18410009974684031594
14251757 5 17689983961981279126
14363568 33 18337658746712222438
14659021 117 17547298160802226258
14790565 3 17908697333199140972
14863182 85 18055626222943157892
14866123 147 17472417029208961969
15351339 4 17409098336551023443
15352361 1 18268146629102943863
15927050 60 17832141629081619844
17859628 70 18410006598517970609
17974551 9 17751084827921853217
1979834 28 18054497011906108803
20775530 9 18269554003986406214
21133410 32 16482982776362856442
21133410 38 17900249811496965643
21197605 99 17837204879452912611
221490 88 18412545444229063550
23559900 14 18411705395907503641
3117164 225 18264754627943213169
3421961 26 18410292518786014504
404807 14 17976812409785043923
4403749 210 17547304302226073369
5047190 48 17765993892066643925
5265222 85 17765140680056171500
5309563 4 18336546139323180630
613672 6 18122364620365068190
6443956 14 18411976983653350800
6669772 16 18118112581879459916
6823239 73 18341334469733602586
9658208 31 17542780911806316104
9709674 26 18341618109621633015
9777508 108 16965487768606595520

> <PUBCHEM_SHAPE_MULTIPOLES>
483.88
10.19
6.41
0.97
11.16
0.46
0.06
-4.67
-1.32
-9.06
-0.12
0.58
0.18
2.96

> <PUBCHEM_SHAPE_SELFOVERLAP>
1052.831

> <PUBCHEM_SHAPE_VOLUME>
261.1

> <PUBCHEM_COORDINATE_TYPE>
2
5
10

$$$$

