853983
  -OEChem-06241222463D

 40 41  0     1  0  0  0  0  0999 V2000
   -3.5777   -2.8117   -0.0311 O   0  0  0  0  0  0  0  0  0  0  0  0
   -0.9130    1.7489    0.0825 O   0  0  0  0  0  0  0  0  0  0  0  0
   -5.2770   -1.2923   -0.0237 O   0  0  0  0  0  0  0  0  0  0  0  0
    5.3769    0.2413   -0.5829 O   0  0  0  0  0  0  0  0  0  0  0  0
   -0.0354   -0.4048    0.4397 N   0  0  0  0  0  0  0  0  0  0  0  0
   -2.3717   -0.0144    0.7263 C   0  0  2  0  0  0  0  0  0  0  0  0
   -3.0206   -0.5838   -0.5421 C   0  0  2  0  0  0  0  0  0  0  0  0
   -3.2350    1.0306    1.4484 C   0  0  0  0  0  0  0  0  0  0  0  0
   -3.5921    0.4927   -1.4763 C   0  0  0  0  0  0  0  0  0  0  0  0
   -4.0483    1.9006    0.5390 C   0  0  0  0  0  0  0  0  0  0  0  0
   -4.1996    1.6660   -0.7699 C   0  0  0  0  0  0  0  0  0  0  0  0
   -1.0290    0.5638    0.3770 C   0  0  0  0  0  0  0  0  0  0  0  0
   -4.0959   -1.5676   -0.1753 C   0  0  0  0  0  0  0  0  0  0  0  0
    1.3457   -0.2398    0.1794 C   0  0  0  0  0  0  0  0  0  0  0  0
    2.1915   -1.3305    0.2929 C   0  0  0  0  0  0  0  0  0  0  0  0
    1.8223    1.0090   -0.1837 C   0  0  0  0  0  0  0  0  0  0  0  0
    3.5528   -1.1679    0.0360 C   0  0  0  0  0  0  0  0  0  0  0  0
    3.1836    1.1716   -0.4406 C   0  0  0  0  0  0  0  0  0  0  0  0
    4.0490    0.0831   -0.3307 C   0  0  0  0  0  0  0  0  0  0  0  0
    6.2782   -0.6089    0.1247 C   0  0  0  0  0  0  0  0  0  0  0  0
    7.5952    0.1142    0.3103 C   0  0  0  0  0  0  0  0  0  0  0  0
   -2.2065   -0.8259    1.4498 H   0  0  0  0  0  0  0  0  0  0  0  0
   -2.2809   -1.1424   -1.1337 H   0  0  0  0  0  0  0  0  0  0  0  0
   -2.6132    1.6672    2.0898 H   0  0  0  0  0  0  0  0  0  0  0  0
   -3.9363    0.5135    2.1159 H   0  0  0  0  0  0  0  0  0  0  0  0
   -4.3413    0.0573   -2.1491 H   0  0  0  0  0  0  0  0  0  0  0  0
   -2.7877    0.8761   -2.1170 H   0  0  0  0  0  0  0  0  0  0  0  0
   -4.5349    2.7661    0.9796 H   0  0  0  0  0  0  0  0  0  0  0  0
   -4.7912    2.3559   -1.3648 H   0  0  0  0  0  0  0  0  0  0  0  0
   -0.3111   -1.3511    0.6933 H   0  0  0  0  0  0  0  0  0  0  0  0
   -4.2647   -3.4689    0.2105 H   0  0  0  0  0  0  0  0  0  0  0  0
    1.8140   -2.3104    0.5719 H   0  0  0  0  0  0  0  0  0  0  0  0
    1.2170    1.8972   -0.2893 H   0  0  0  0  0  0  0  0  0  0  0  0
    4.1871   -2.0466    0.1058 H   0  0  0  0  0  0  0  0  0  0  0  0
    3.5657    2.1480   -0.7261 H   0  0  0  0  0  0  0  0  0  0  0  0
    5.9001   -0.8643    1.1226 H   0  0  0  0  0  0  0  0  0  0  0  0
    6.4371   -1.5257   -0.4535 H   0  0  0  0  0  0  0  0  0  0  0  0
    8.3156   -0.5141    0.8415 H   0  0  0  0  0  0  0  0  0  0  0  0
    8.0201    0.3961   -0.6587 H   0  0  0  0  0  0  0  0  0  0  0  0
    7.4503    1.0409    0.8755 H   0  0  0  0  0  0  0  0  0  0  0  0
  1 13  1  0  0  0  0
  1 31  1  0  0  0  0
  2 12  2  0  0  0  0
  3 13  2  0  0  0  0
  4 19  1  0  0  0  0
  4 20  1  0  0  0  0
  5 12  1  0  0  0  0
  5 14  1  0  0  0  0
  5 30  1  0  0  0  0
  6  7  1  0  0  0  0
  6  8  1  0  0  0  0
  6 12  1  0  0  0  0
  6 22  1  0  0  0  0
  7  9  1  0  0  0  0
  7 13  1  0  0  0  0
  7 23  1  0  0  0  0
  8 10  1  0  0  0  0
  8 24  1  0  0  0  0
  8 25  1  0  0  0  0
  9 11  1  0  0  0  0
  9 26  1  0  0  0  0
  9 27  1  0  0  0  0
 10 11  2  0  0  0  0
 10 28  1  0  0  0  0
 11 29  1  0  0  0  0
 14 15  2  0  0  0  0
 14 16  1  0  0  0  0
 15 17  1  0  0  0  0
 15 32  1  0  0  0  0
 16 18  2  0  0  0  0
 16 33  1  0  0  0  0
 17 19  2  0  0  0  0
 17 34  1  0  0  0  0
 18 19  1  0  0  0  0
 18 35  1  0  0  0  0
 20 21  1  0  0  0  0
 20 36  1  0  0  0  0
 20 37  1  0  0  0  0
 21 38  1  0  0  0  0
 21 39  1  0  0  0  0
 21 40  1  0  0  0  0
M  END
> <PUBCHEM_COMPOUND_CID>
853983

> <PUBCHEM_CONFORMER_RMSD>
0.8

> <PUBCHEM_CONFORMER_DIVERSEORDER>
1
2
22
4
20
18
9
12
17
7
15
21
3
6
13
23
14
24
11
5
16
8
10
19

> <PUBCHEM_MMFF94_PARTIAL_CHARGES>
28
1 -0.65
10 -0.29
11 -0.29
12 0.57
13 0.66
14 0.12
15 -0.15
16 -0.15
17 -0.15
18 -0.15
19 0.08
2 -0.57
20 0.28
28 0.15
29 0.15
3 -0.57
30 0.37
31 0.5
32 0.15
33 0.15
34 0.15
35 0.15
4 -0.36
5 -0.55
6 0.06
7 0.06
8 0.14
9 0.14

> <PUBCHEM_EFFECTIVE_ROTOR_COUNT>
6.8

> <PUBCHEM_PHARMACOPHORE_FEATURES>
8
1 1 acceptor
1 2 acceptor
1 3 acceptor
1 4 acceptor
1 5 donor
3 1 3 13 anion
6 14 15 16 17 18 19 rings
6 6 7 8 9 10 11 rings

> <PUBCHEM_HEAVY_ATOM_COUNT>
21

> <PUBCHEM_ATOM_DEF_STEREO_COUNT>
2

> <PUBCHEM_ATOM_UDEF_STEREO_COUNT>
0

> <PUBCHEM_BOND_DEF_STEREO_COUNT>
0

> <PUBCHEM_BOND_UDEF_STEREO_COUNT>
0

> <PUBCHEM_ISOTOPIC_ATOM_COUNT>
0

> <PUBCHEM_COMPONENT_COUNT>
1

> <PUBCHEM_CACTVS_TAUTO_COUNT>
2

> <PUBCHEM_CONFORMER_ID>
000D07DF00000001

> <PUBCHEM_MMFF94_ENERGY>
51.9425

> <PUBCHEM_FEATURE_SELFOVERLAP>
40.651

> <PUBCHEM_SHAPE_FINGERPRINT>
10366900 7 17095814324770461243
10616163 171 18335136488481591183
11089746 13 17418095404262697580
11315181 36 17385728001700826401
12091667 2 17489868250258148376
12166972 35 18130785612566530772
12236239 1 18409167732024599362
12616971 3 17846204566893748444
12760667 363 18261956237806860743
13167823 11 18411418405808039646
13288520 33 18335420158043535045
13631057 29 18337676308770621043
13862211 1 18272089414335371250
15183329 4 14620520043231369064
15788980 27 17917991693955891672
17093844 174 18341898502019068160
17844677 252 18336259063888431312
18681886 176 18337115579725988552
18927931 339 17240480303742262941
19489759 90 16845856788772103764
200 152 18335142002997552780
20871999 31 18413113857697415943
21054139 6 18341335509427495810
21267235 1 18410848833067801931
21709351 56 18202002118757979028
220451 1 18271519888528569930
23081809 10 17847057788449386028
23402539 116 18413108372829149636
23402655 69 18342174518150166300
23557571 272 18261385650657275453
23559900 14 18334022678559391032
300161 21 18335423521034699752
32027 91 17827346997812107846
34797466 226 16805594817085719716
3545911 37 18409729586202320961
4214541 1 18410855464750300197
5104073 3 18408323289534758482
531348 171 17702676577834893878
542803 24 16702013197691302540
559249 180 18411983589244590715
633830 44 16988837306570529848
7495541 125 17095529479030387344

> <PUBCHEM_SHAPE_MULTIPOLES>
403.71
15.2
1.91
0.96
22.27
0.58
0.01
1.06
0.63
-2.78
-0.01
-0.88
-0.23
-0.39

> <PUBCHEM_SHAPE_SELFOVERLAP>
847.544

> <PUBCHEM_SHAPE_VOLUME>
224.8

> <PUBCHEM_COORDINATE_TYPE>
2
5
10

$$$$

