17395707
  -OEChem-06241222512D

 39 42  0     1  0  0  0  0  0999 V2000
    4.2506    0.9446    0.0000 S   0  0  0  0  0  0  0  0  0  0  0  0
    5.2813   -3.6202    0.0000 S   0  0  0  0  0  0  0  0  0  0  0  0
    3.0779   -0.6755    0.0000 O   0  0  0  0  0  0  0  0  0  0  0  0
    4.5274    2.6993    0.0000 N   0  0  0  0  0  0  0  0  0  0  0  0
    5.0274    4.2381    0.0000 N   0  0  0  0  0  0  0  0  0  0  0  0
    6.1391    2.7007    0.0000 N   0  0  0  0  0  0  0  0  0  0  0  0
    5.8311    1.7555    0.0000 N   0  0  0  0  0  0  0  0  0  0  0  0
    4.4809   -1.6911    0.0000 N   0  0  0  0  0  0  0  0  0  0  0  0
    3.7183    3.2871    0.0000 C   0  0  0  0  0  0  0  0  0  0  0  0
    5.3364    3.2871    0.0000 C   0  0  0  0  0  0  0  0  0  0  0  0
    4.8370    1.7546    0.0000 C   0  0  0  0  0  0  0  0  0  0  0  0
    4.0274    4.2381    0.0000 C   0  0  0  0  0  0  0  0  0  0  0  0
    4.6589    0.0318    0.0000 C   0  0  3  0  0  0  0  0  0  0  0  0
    2.7029    3.0548    0.0000 C   0  0  0  0  0  0  0  0  0  0  0  0
    3.3424    5.0228    0.0000 C   0  0  0  0  0  0  0  0  0  0  0  0
    4.0726   -0.7783    0.0000 C   0  0  0  0  0  0  0  0  0  0  0  0
    5.6536   -0.0710    0.0000 C   0  0  0  0  0  0  0  0  0  0  0  0
    2.0000    3.8235    0.0000 C   0  0  0  0  0  0  0  0  0  0  0  0
    3.8945   -2.5011    0.0000 C   0  0  0  0  0  0  0  0  0  0  0  0
    2.3219    4.8141    0.0000 C   0  0  0  0  0  0  0  0  0  0  0  0
    4.3028   -3.4140    0.0000 C   0  0  0  0  0  0  0  0  0  0  0  0
    3.8043   -4.2809    0.0000 C   0  0  0  0  0  0  0  0  0  0  0  0
    4.4747   -5.0228    0.0000 C   0  0  0  0  0  0  0  0  0  0  0  0
    5.3876   -4.6145    0.0000 C   0  0  0  0  0  0  0  0  0  0  0  0
    5.0225    0.5340    0.0000 H   0  0  0  0  0  0  0  0  0  0  0  0
    6.7291    2.8912    0.0000 H   0  0  0  0  0  0  0  0  0  0  0  0
    2.5182    2.4630    0.0000 H   0  0  0  0  0  0  0  0  0  0  0  0
    3.5408    5.6102    0.0000 H   0  0  0  0  0  0  0  0  0  0  0  0
    5.5899   -0.6878    0.0000 H   0  0  0  0  0  0  0  0  0  0  0  0
    6.2704   -0.1348    0.0000 H   0  0  0  0  0  0  0  0  0  0  0  0
    5.7174    0.5457    0.0000 H   0  0  0  0  0  0  0  0  0  0  0  0
    1.3940    3.6922    0.0000 H   0  0  0  0  0  0  0  0  0  0  0  0
    3.4630   -2.0559    0.0000 H   0  0  0  0  0  0  0  0  0  0  0  0
    3.3811   -2.8487    0.0000 H   0  0  0  0  0  0  0  0  0  0  0  0
    5.0976   -1.7548    0.0000 H   0  0  0  0  0  0  0  0  0  0  0  0
    1.9088    5.2765    0.0000 H   0  0  0  0  0  0  0  0  0  0  0  0
    3.1878   -4.3467    0.0000 H   0  0  0  0  0  0  0  0  0  0  0  0
    4.3469   -5.6295    0.0000 H   0  0  0  0  0  0  0  0  0  0  0  0
    5.9250   -4.9236    0.0000 H   0  0  0  0  0  0  0  0  0  0  0  0
  1 11  1  0  0  0  0
  1 13  1  0  0  0  0
  2 21  1  0  0  0  0
  2 24  1  0  0  0  0
  3 16  2  0  0  0  0
  4  9  1  0  0  0  0
  4 10  1  0  0  0  0
  4 11  1  0  0  0  0
  5 10  2  0  0  0  0
  5 12  1  0  0  0  0
  6  7  1  0  0  0  0
  6 10  1  0  0  0  0
  6 26  1  0  0  0  0
  7 11  2  0  0  0  0
  8 16  1  0  0  0  0
  8 19  1  0  0  0  0
  8 35  1  0  0  0  0
  9 12  1  0  0  0  0
  9 14  2  0  0  0  0
 12 15  2  0  0  0  0
 13 16  1  0  0  0  0
 13 17  1  0  0  0  0
 13 25  1  0  0  0  0
 14 18  1  0  0  0  0
 14 27  1  0  0  0  0
 15 20  1  0  0  0  0
 15 28  1  0  0  0  0
 17 29  1  0  0  0  0
 17 30  1  0  0  0  0
 17 31  1  0  0  0  0
 18 20  2  0  0  0  0
 18 32  1  0  0  0  0
 19 21  1  0  0  0  0
 19 33  1  0  0  0  0
 19 34  1  0  0  0  0
 20 36  1  0  0  0  0
 21 22  2  0  0  0  0
 22 23  1  0  0  0  0
 22 37  1  0  0  0  0
 23 24  2  0  0  0  0
 23 38  1  0  0  0  0
 24 39  1  0  0  0  0
M  END
> <PUBCHEM_COMPOUND_CID>
17395707

> <PUBCHEM_COMPOUND_CANONICALIZED>
1

> <PUBCHEM_CACTVS_COMPLEXITY>
468

> <PUBCHEM_CACTVS_HBOND_ACCEPTOR>
5

> <PUBCHEM_CACTVS_HBOND_DONOR>
2

> <PUBCHEM_CACTVS_ROTATABLE_BOND>
5

> <PUBCHEM_CACTVS_SUBSKEYS>
AAADccB7oABgAAAAAAAAAAAAAAAAAWLEgAAwAAAAAAAWAFgB/gAAHgQYAAAACAjF1gSz0bfvGAiuASVydACT0K/hGrBNuLk4dJiIaKLgmZGUIAholgLoyCcQAAAAAAAAAAAAACAAAAAAAAAAQAAAAAAAAA==

> <PUBCHEM_IUPAC_OPENEYE_NAME>
N-(2-thienylmethyl)-2-(3H-[1,2,4]triazolo[4,3-a]benzimidazol-1-ylsulfanyl)propanamide

> <PUBCHEM_IUPAC_CAS_NAME>
N-(thiophen-2-ylmethyl)-2-(3H-[1,2,4]triazolo[4,3-a]benzimidazol-1-ylthio)propanamide

> <PUBCHEM_IUPAC_NAME>
N-(thiophen-2-ylmethyl)-2-(3H-[1,2,4]triazolo[4,3-a]benzimidazol-1-ylsulfanyl)propanamide

> <PUBCHEM_IUPAC_SYSTEMATIC_NAME>
N-(thiophen-2-ylmethyl)-2-(3H-[1,2,4]triazolo[4,3-a]benzimidazol-1-ylsulfanyl)propanamide

> <PUBCHEM_IUPAC_TRADITIONAL_NAME>
N-(2-thenyl)-2-(3H-[1,2,4]triazolo[4,3-a]benzimidazol-1-ylthio)propionamide

> <PUBCHEM_IUPAC_INCHI>
InChI=1S/C16H15N5OS2/c1-10(14(22)17-9-11-5-4-8-23-11)24-16-20-19-15-18-12-6-2-3-7-13(12)21(15)16/h2-8,10H,9H2,1H3,(H,17,22)(H,18,19)

> <PUBCHEM_IUPAC_INCHIKEY>
YUQIFTZGZOXOTE-UHFFFAOYSA-N

> <PUBCHEM_XLOGP3_AA>
4.1

> <PUBCHEM_EXACT_MASS>
357.071802

> <PUBCHEM_MOLECULAR_FORMULA>
C16H15N5OS2

> <PUBCHEM_MOLECULAR_WEIGHT>
357.4532

> <PUBCHEM_OPENEYE_CAN_SMILES>
CC(C(=O)NCC1=CC=CS1)SC2=NNC3=NC4=CC=CC=C4N32

> <PUBCHEM_OPENEYE_ISO_SMILES>
CC(C(=O)NCC1=CC=CS1)SC2=NNC3=NC4=CC=CC=C4N32

> <PUBCHEM_CACTVS_TPSA>
129

> <PUBCHEM_MONOISOTOPIC_WEIGHT>
357.071802

> <PUBCHEM_TOTAL_CHARGE>
0

> <PUBCHEM_HEAVY_ATOM_COUNT>
24

> <PUBCHEM_ATOM_DEF_STEREO_COUNT>
0

> <PUBCHEM_ATOM_UDEF_STEREO_COUNT>
1

> <PUBCHEM_BOND_DEF_STEREO_COUNT>
0

> <PUBCHEM_BOND_UDEF_STEREO_COUNT>
0

> <PUBCHEM_ISOTOPIC_ATOM_COUNT>
0

> <PUBCHEM_COMPONENT_COUNT>
1

> <PUBCHEM_CACTVS_TAUTO_COUNT>
4

> <PUBCHEM_COORDINATE_TYPE>
1
5
255

> <PUBCHEM_BONDANNOTATIONS>
12  15  8
13  17  3
14  18  8
15  20  8
18  20  8
2  21  8
2  24  8
21  22  8
22  23  8
23  24  8
4  10  8
4  11  8
4  9  8
5  10  8
5  12  8
6  10  8
6  7  8
7  11  8
9  12  8
9  14  8

$$$$

