47205338
  -OEChem-06241222583D

 33 34  0     0  0  0  0  0  0999 V2000
   -5.4597    1.0254   -0.3025 S   0  0  0  0  0  0  0  0  0  0  0  0
    0.5690    1.0544    0.9164 O   0  0  0  0  0  0  0  0  0  0  0  0
   -1.3223   -0.1596   -1.7334 O   0  0  0  0  0  0  0  0  0  0  0  0
    2.5915   -0.0321    0.5597 N   0  0  0  0  0  0  0  0  0  0  0  0
   -0.9327   -0.8964    0.4330 N   0  0  0  0  0  0  0  0  0  0  0  0
    5.2268    0.2501   -0.5965 C   0  0  0  0  0  0  0  0  0  0  0  0
    4.3727    1.4677   -0.2469 C   0  0  0  0  0  0  0  0  0  0  0  0
    4.3497   -0.9647   -0.8957 C   0  0  0  0  0  0  0  0  0  0  0  0
    3.3941    1.1501    0.8806 C   0  0  0  0  0  0  0  0  0  0  0  0
    3.3697   -1.2364    0.2437 C   0  0  0  0  0  0  0  0  0  0  0  0
    1.1997    0.0390    0.6113 C   0  0  0  0  0  0  0  0  0  0  0  0
    0.4458   -1.2202    0.2650 C   0  0  0  0  0  0  0  0  0  0  0  0
   -1.7258   -0.3824   -0.5949 C   0  0  0  0  0  0  0  0  0  0  0  0
   -3.1374   -0.0722   -0.2515 C   0  0  0  0  0  0  0  0  0  0  0  0
   -3.8971   -0.7071    0.7731 C   0  0  0  0  0  0  0  0  0  0  0  0
   -3.8663    0.8901   -0.9151 C   0  0  0  0  0  0  0  0  0  0  0  0
   -5.1777   -0.2057    0.8538 C   0  0  0  0  0  0  0  0  0  0  0  0
    5.8968    0.0203    0.2410 H   0  0  0  0  0  0  0  0  0  0  0  0
    5.8589    0.4752   -1.4626 H   0  0  0  0  0  0  0  0  0  0  0  0
    4.9788   -1.8455   -1.0642 H   0  0  0  0  0  0  0  0  0  0  0  0
    3.7891   -0.7834   -1.8213 H   0  0  0  0  0  0  0  0  0  0  0  0
    3.8130    1.7810   -1.1371 H   0  0  0  0  0  0  0  0  0  0  0  0
    5.0172    2.3046    0.0430 H   0  0  0  0  0  0  0  0  0  0  0  0
    3.9121   -1.5182    1.1540 H   0  0  0  0  0  0  0  0  0  0  0  0
    2.7288   -2.0784   -0.0237 H   0  0  0  0  0  0  0  0  0  0  0  0
    2.7536    2.0176    1.0683 H   0  0  0  0  0  0  0  0  0  0  0  0
    3.9356    0.9352    1.8095 H   0  0  0  0  0  0  0  0  0  0  0  0
    0.6465   -1.5150   -0.7685 H   0  0  0  0  0  0  0  0  0  0  0  0
    0.6947   -2.0228    0.9636 H   0  0  0  0  0  0  0  0  0  0  0  0
   -1.3314   -1.0155    1.3592 H   0  0  0  0  0  0  0  0  0  0  0  0
   -3.5408   -1.4978    1.4209 H   0  0  0  0  0  0  0  0  0  0  0  0
   -3.5480    1.5261   -1.7297 H   0  0  0  0  0  0  0  0  0  0  0  0
   -5.9616   -0.5048    1.5351 H   0  0  0  0  0  0  0  0  0  0  0  0
  1 16  1  0  0  0  0
  1 17  1  0  0  0  0
  2 11  2  0  0  0  0
  3 13  2  0  0  0  0
  4  9  1  0  0  0  0
  4 10  1  0  0  0  0
  4 11  1  0  0  0  0
  5 12  1  0  0  0  0
  5 13  1  0  0  0  0
  5 30  1  0  0  0  0
  6  7  1  0  0  0  0
  6  8  1  0  0  0  0
  6 18  1  0  0  0  0
  6 19  1  0  0  0  0
  7  9  1  0  0  0  0
  7 22  1  0  0  0  0
  7 23  1  0  0  0  0
  8 10  1  0  0  0  0
  8 20  1  0  0  0  0
  8 21  1  0  0  0  0
  9 26  1  0  0  0  0
  9 27  1  0  0  0  0
 10 24  1  0  0  0  0
 10 25  1  0  0  0  0
 11 12  1  0  0  0  0
 12 28  1  0  0  0  0
 12 29  1  0  0  0  0
 13 14  1  0  0  0  0
 14 15  1  0  0  0  0
 14 16  2  0  0  0  0
 15 17  2  0  0  0  0
 15 31  1  0  0  0  0
 16 32  1  0  0  0  0
 17 33  1  0  0  0  0
M  END
> <PUBCHEM_COMPOUND_CID>
47205338

> <PUBCHEM_CONFORMER_RMSD>
0.8

> <PUBCHEM_CONFORMER_DIVERSEORDER>
2
18
34
16
51
36
37
57
63
1
20
31
40
33
47
49
29
10
64
30
32
23
21
50
61
3
45
62
25
48
41
24
9
11
22
17
4
26
46
44
12
52
54
43
35
56
27
19
38
15
53
7
42
28
55
8
59
14
58
60
13
5
39
6

> <PUBCHEM_MMFF94_PARTIAL_CHARGES>
18
1 -0.08
10 0.3
11 0.57
12 0.36
13 0.72
14 -0.09
15 -0.15
16 -0.11
17 -0.11
2 -0.57
3 -0.57
30 0.37
31 0.15
32 0.15
33 0.15
4 -0.66
5 -0.73
9 0.3

> <PUBCHEM_EFFECTIVE_ROTOR_COUNT>
6.2

> <PUBCHEM_PHARMACOPHORE_FEATURES>
5
1 2 acceptor
1 3 acceptor
1 5 donor
5 1 14 15 16 17 rings
6 4 6 7 8 9 10 rings

> <PUBCHEM_HEAVY_ATOM_COUNT>
17

> <PUBCHEM_ATOM_DEF_STEREO_COUNT>
0

> <PUBCHEM_ATOM_UDEF_STEREO_COUNT>
0

> <PUBCHEM_BOND_DEF_STEREO_COUNT>
0

> <PUBCHEM_BOND_UDEF_STEREO_COUNT>
0

> <PUBCHEM_ISOTOPIC_ATOM_COUNT>
0

> <PUBCHEM_COMPONENT_COUNT>
1

> <PUBCHEM_CACTVS_TAUTO_COUNT>
2

> <PUBCHEM_CONFORMER_ID>
02D04BDA00000002

> <PUBCHEM_MMFF94_ENERGY>
24.0551

> <PUBCHEM_FEATURE_SELFOVERLAP>
25.371

> <PUBCHEM_SHAPE_MULTIPOLES>
332
13.13
1.32
1.11
2.68
0.12
0.17
2.79
0.77
-0.64
-0.06
0.09
0.06
0.82

> <PUBCHEM_SHAPE_SELFOVERLAP>
672.482

> <PUBCHEM_SHAPE_VOLUME>
193.4

> <PUBCHEM_COORDINATE_TYPE>
2
5
10

$$$$

