51090946
  -OEChem-06241223002D

 50 53  0     0  0  0  0  0  0999 V2000
    8.2983   -2.6488    0.0000 O   0  0  0  0  0  0  0  0  0  0  0  0
    5.4836   -3.8512    0.0000 O   0  0  0  0  0  0  0  0  0  0  0  0
    7.4323    1.8512    0.0000 N   0  0  0  0  0  0  0  0  0  0  0  0
    7.4323   -1.1488    0.0000 N   0  0  0  0  0  0  0  0  0  0  0  0
    6.4617   -3.6433    0.0000 N   0  0  0  0  0  0  0  0  0  0  0  0
    7.4323    0.8512    0.0000 C   0  0  0  0  0  0  0  0  0  0  0  0
    6.5662    0.3512    0.0000 C   0  0  0  0  0  0  0  0  0  0  0  0
    8.2983    0.3512    0.0000 C   0  0  0  0  0  0  0  0  0  0  0  0
    8.2983    2.3512    0.0000 C   0  0  0  0  0  0  0  0  0  0  0  0
    6.5662    2.3512    0.0000 C   0  0  0  0  0  0  0  0  0  0  0  0
    6.5662   -0.6488    0.0000 C   0  0  0  0  0  0  0  0  0  0  0  0
    8.2983   -0.6488    0.0000 C   0  0  0  0  0  0  0  0  0  0  0  0
    8.2983    3.3512    0.0000 C   0  0  0  0  0  0  0  0  0  0  0  0
    6.5662    3.3512    0.0000 C   0  0  0  0  0  0  0  0  0  0  0  0
    7.4323    3.8512    0.0000 C   0  0  0  0  0  0  0  0  0  0  0  0
    7.4323   -2.1488    0.0000 C   0  0  0  0  0  0  0  0  0  0  0  0
    6.5662   -2.6488    0.0000 C   0  0  0  0  0  0  0  0  0  0  0  0
    5.6527   -2.2420    0.0000 C   0  0  0  0  0  0  0  0  0  0  0  0
    4.9836   -2.9852    0.0000 C   0  0  0  0  0  0  0  0  0  0  0  0
    3.9890   -2.8807    0.0000 C   0  0  0  0  0  0  0  0  0  0  0  0
    3.5823   -1.9671    0.0000 C   0  0  0  0  0  0  0  0  0  0  0  0
    3.4013   -3.6897    0.0000 C   0  0  0  0  0  0  0  0  0  0  0  0
    2.5878   -1.8626    0.0000 C   0  0  0  0  0  0  0  0  0  0  0  0
    2.4067   -3.5852    0.0000 C   0  0  0  0  0  0  0  0  0  0  0  0
    2.0000   -2.6716    0.0000 C   0  0  0  0  0  0  0  0  0  0  0  0
    7.9692    1.1612    0.0000 H   0  0  0  0  0  0  0  0  0  0  0  0
    6.3542    0.9338    0.0000 H   0  0  0  0  0  0  0  0  0  0  0  0
    5.9557    0.2436    0.0000 H   0  0  0  0  0  0  0  0  0  0  0  0
    8.9089    0.2436    0.0000 H   0  0  0  0  0  0  0  0  0  0  0  0
    8.5103    0.9338    0.0000 H   0  0  0  0  0  0  0  0  0  0  0  0
    8.5103    1.7686    0.0000 H   0  0  0  0  0  0  0  0  0  0  0  0
    8.9089    2.4589    0.0000 H   0  0  0  0  0  0  0  0  0  0  0  0
    5.9557    2.4589    0.0000 H   0  0  0  0  0  0  0  0  0  0  0  0
    6.3542    1.7686    0.0000 H   0  0  0  0  0  0  0  0  0  0  0  0
    8.5103   -1.2314    0.0000 H   0  0  0  0  0  0  0  0  0  0  0  0
    8.9089   -0.5411    0.0000 H   0  0  0  0  0  0  0  0  0  0  0  0
    5.9557   -0.5411    0.0000 H   0  0  0  0  0  0  0  0  0  0  0  0
    6.3542   -1.2314    0.0000 H   0  0  0  0  0  0  0  0  0  0  0  0
    8.9089    3.2436    0.0000 H   0  0  0  0  0  0  0  0  0  0  0  0
    8.5103    3.9338    0.0000 H   0  0  0  0  0  0  0  0  0  0  0  0
    6.3542    3.9338    0.0000 H   0  0  0  0  0  0  0  0  0  0  0  0
    5.9557    3.2436    0.0000 H   0  0  0  0  0  0  0  0  0  0  0  0
    7.8308    4.3262    0.0000 H   0  0  0  0  0  0  0  0  0  0  0  0
    7.0337    4.3262    0.0000 H   0  0  0  0  0  0  0  0  0  0  0  0
    5.5238   -1.6356    0.0000 H   0  0  0  0  0  0  0  0  0  0  0  0
    3.9467   -1.4655    0.0000 H   0  0  0  0  0  0  0  0  0  0  0  0
    3.6534   -4.2561    0.0000 H   0  0  0  0  0  0  0  0  0  0  0  0
    2.3356   -1.2962    0.0000 H   0  0  0  0  0  0  0  0  0  0  0  0
    2.0423   -4.0867    0.0000 H   0  0  0  0  0  0  0  0  0  0  0  0
    1.3834   -2.6068    0.0000 H   0  0  0  0  0  0  0  0  0  0  0  0
  1 16  2  0  0  0  0
  2  5  1  0  0  0  0
  2 19  1  0  0  0  0
  3  6  1  0  0  0  0
  3  9  1  0  0  0  0
  3 10  1  0  0  0  0
  4 11  1  0  0  0  0
  4 12  1  0  0  0  0
  4 16  1  0  0  0  0
  5 17  2  0  0  0  0
  6  7  1  0  0  0  0
  6  8  1  0  0  0  0
  6 26  1  0  0  0  0
  7 11  1  0  0  0  0
  7 27  1  0  0  0  0
  7 28  1  0  0  0  0
  8 12  1  0  0  0  0
  8 29  1  0  0  0  0
  8 30  1  0  0  0  0
  9 13  1  0  0  0  0
  9 31  1  0  0  0  0
  9 32  1  0  0  0  0
 10 14  1  0  0  0  0
 10 33  1  0  0  0  0
 10 34  1  0  0  0  0
 11 37  1  0  0  0  0
 11 38  1  0  0  0  0
 12 35  1  0  0  0  0
 12 36  1  0  0  0  0
 13 15  1  0  0  0  0
 13 39  1  0  0  0  0
 13 40  1  0  0  0  0
 14 15  1  0  0  0  0
 14 41  1  0  0  0  0
 14 42  1  0  0  0  0
 15 43  1  0  0  0  0
 15 44  1  0  0  0  0
 16 17  1  0  0  0  0
 17 18  1  0  0  0  0
 18 19  2  0  0  0  0
 18 45  1  0  0  0  0
 19 20  1  0  0  0  0
 20 21  2  0  0  0  0
 20 22  1  0  0  0  0
 21 23  1  0  0  0  0
 21 46  1  0  0  0  0
 22 24  2  0  0  0  0
 22 47  1  0  0  0  0
 23 25  2  0  0  0  0
 23 48  1  0  0  0  0
 24 25  1  0  0  0  0
 24 49  1  0  0  0  0
 25 50  1  0  0  0  0
M  END
> <PUBCHEM_COMPOUND_CID>
51090946

> <PUBCHEM_COMPOUND_CANONICALIZED>
1

> <PUBCHEM_CACTVS_COMPLEXITY>
438

> <PUBCHEM_CACTVS_HBOND_ACCEPTOR>
4

> <PUBCHEM_CACTVS_HBOND_DONOR>
0

> <PUBCHEM_CACTVS_ROTATABLE_BOND>
3

> <PUBCHEM_CACTVS_SUBSKEYS>
AAADceB7MAAAAAAAAAAAAAAAAAAAAWAAAAA8WIAAAAAAAAABwAAAHgAEAAAADCzBngQwhJMQAACpA6VyUgCCAAAmIgAomCG+bNoIZjqA1ZOUMYhmxhmIyce/yKCOAAAAAAAAAAAAAAAAAAAAAAAAAAAAAA==

> <PUBCHEM_IUPAC_OPENEYE_NAME>
(5-phenylisoxazol-3-yl)-[4-(1-piperidyl)-1-piperidyl]methanone

> <PUBCHEM_IUPAC_CAS_NAME>
(5-phenyl-3-isoxazolyl)-[4-(1-piperidinyl)-1-piperidinyl]methanone

> <PUBCHEM_IUPAC_NAME>
(5-phenyl-1,2-oxazol-3-yl)-(4-piperidin-1-ylpiperidin-1-yl)methanone

> <PUBCHEM_IUPAC_SYSTEMATIC_NAME>
(5-phenyl-1,2-oxazol-3-yl)-(4-piperidin-1-ylpiperidin-1-yl)methanone

> <PUBCHEM_IUPAC_TRADITIONAL_NAME>
(5-phenylisoxazol-3-yl)-(4-piperidinopiperidino)methanone

> <PUBCHEM_IUPAC_INCHI>
InChI=1S/C20H25N3O2/c24-20(18-15-19(25-21-18)16-7-3-1-4-8-16)23-13-9-17(10-14-23)22-11-5-2-6-12-22/h1,3-4,7-8,15,17H,2,5-6,9-14H2

> <PUBCHEM_IUPAC_INCHIKEY>
ULWVKTRAXFWPOE-UHFFFAOYSA-N

> <PUBCHEM_XLOGP3_AA>
3.3

> <PUBCHEM_EXACT_MASS>
339.194677

> <PUBCHEM_MOLECULAR_FORMULA>
C20H25N3O2

> <PUBCHEM_MOLECULAR_WEIGHT>
339.4314

> <PUBCHEM_OPENEYE_CAN_SMILES>
C1CCN(CC1)C2CCN(CC2)C(=O)C3=NOC(=C3)C4=CC=CC=C4

> <PUBCHEM_OPENEYE_ISO_SMILES>
C1CCN(CC1)C2CCN(CC2)C(=O)C3=NOC(=C3)C4=CC=CC=C4

> <PUBCHEM_CACTVS_TPSA>
49.6

> <PUBCHEM_MONOISOTOPIC_WEIGHT>
339.194677

> <PUBCHEM_TOTAL_CHARGE>
0

> <PUBCHEM_HEAVY_ATOM_COUNT>
25

> <PUBCHEM_ATOM_DEF_STEREO_COUNT>
0

> <PUBCHEM_ATOM_UDEF_STEREO_COUNT>
0

> <PUBCHEM_BOND_DEF_STEREO_COUNT>
0

> <PUBCHEM_BOND_UDEF_STEREO_COUNT>
0

> <PUBCHEM_ISOTOPIC_ATOM_COUNT>
0

> <PUBCHEM_COMPONENT_COUNT>
1

> <PUBCHEM_CACTVS_TAUTO_COUNT>
1

> <PUBCHEM_COORDINATE_TYPE>
1
5
255

> <PUBCHEM_BONDANNOTATIONS>
17  18  8
18  19  8
2  19  8
2  5  8
20  21  8
20  22  8
21  23  8
22  24  8
23  25  8
24  25  8
5  17  8

$$$$

