12609
  -OEChem-06261207093D

 19 19  0     0  0  0  0  0  0999 V2000
   -3.4415    0.6752   -0.0002 F   0  0  0  0  0  0  0  0  0  0  0  0
   -2.8198   -1.0976   -1.0840 F   0  0  0  0  0  0  0  0  0  0  0  0
   -2.7985   -1.0926    1.0905 F   0  0  0  0  0  0  0  0  0  0  0  0
    4.2724    0.1629   -0.0005 O   0  0  0  0  0  0  0  0  0  0  0  0
    2.3290   -1.1882   -0.0010 N   0  0  0  0  0  0  0  0  0  0  0  0
   -1.1036    0.1682   -0.0009 C   0  0  0  0  0  0  0  0  0  0  0  0
    1.2706   -0.2792   -0.0006 C   0  0  0  0  0  0  0  0  0  0  0  0
   -0.0456   -0.7408   -0.0009 C   0  0  0  0  0  0  0  0  0  0  0  0
   -0.8452    1.5390   -0.0005 C   0  0  0  0  0  0  0  0  0  0  0  0
    1.5289    1.0915   -0.0002 C   0  0  0  0  0  0  0  0  0  0  0  0
   -2.5110   -0.3248   -0.0008 C   0  0  0  0  0  0  0  0  0  0  0  0
    0.4710    2.0007    0.0000 C   0  0  0  0  0  0  0  0  0  0  0  0
    3.6934   -0.9143   -0.0009 C   0  0  0  0  0  0  0  0  0  0  0  0
   -0.2518   -1.8089   -0.0012 H   0  0  0  0  0  0  0  0  0  0  0  0
   -1.6557    2.2626   -0.0003 H   0  0  0  0  0  0  0  0  0  0  0  0
    2.5222    1.5196    0.0000 H   0  0  0  0  0  0  0  0  0  0  0  0
    0.6712    3.0683    0.0003 H   0  0  0  0  0  0  0  0  0  0  0  0
    2.0685   -2.1719   -0.0014 H   0  0  0  0  0  0  0  0  0  0  0  0
    4.2590   -1.8619   -0.0014 H   0  0  0  0  0  0  0  0  0  0  0  0
  1 11  1  0  0  0  0
  2 11  1  0  0  0  0
  3 11  1  0  0  0  0
  4 13  2  0  0  0  0
  5  7  1  0  0  0  0
  5 13  1  0  0  0  0
  5 18  1  0  0  0  0
  6  8  2  0  0  0  0
  6  9  1  0  0  0  0
  6 11  1  0  0  0  0
  7  8  1  0  0  0  0
  7 10  2  0  0  0  0
  8 14  1  0  0  0  0
  9 12  2  0  0  0  0
  9 15  1  0  0  0  0
 10 12  1  0  0  0  0
 10 16  1  0  0  0  0
 12 17  1  0  0  0  0
 13 19  1  0  0  0  0
M  END
> <PUBCHEM_COMPOUND_CID>
12609

> <PUBCHEM_CONFORMER_RMSD>
0.6

> <PUBCHEM_CONFORMER_DIVERSEORDER>
1
2
3
4

> <PUBCHEM_MMFF94_PARTIAL_CHARGES>
19
1 -0.34
10 -0.15
11 1.16
12 -0.15
13 0.57
14 0.15
15 0.15
16 0.15
17 0.15
18 0.37
19 0.06
2 -0.34
3 -0.34
4 -0.57
5 -0.55
6 -0.14
7 0.12
8 -0.15
9 -0.15

> <PUBCHEM_EFFECTIVE_ROTOR_COUNT>
3

> <PUBCHEM_PHARMACOPHORE_FEATURES>
3
1 4 acceptor
1 5 donor
6 6 7 8 9 10 12 rings

> <PUBCHEM_HEAVY_ATOM_COUNT>
13

> <PUBCHEM_ATOM_DEF_STEREO_COUNT>
0

> <PUBCHEM_ATOM_UDEF_STEREO_COUNT>
0

> <PUBCHEM_BOND_DEF_STEREO_COUNT>
0

> <PUBCHEM_BOND_UDEF_STEREO_COUNT>
0

> <PUBCHEM_ISOTOPIC_ATOM_COUNT>
0

> <PUBCHEM_COMPONENT_COUNT>
1

> <PUBCHEM_CACTVS_TAUTO_COUNT>
2

> <PUBCHEM_CONFORMER_ID>
0000314100000001

> <PUBCHEM_MMFF94_ENERGY>
26.3813

> <PUBCHEM_FEATURE_SELFOVERLAP>
15.223

> <PUBCHEM_SHAPE_FINGERPRINT>
10130415 120 18342738537302479169
10219947 1 18186237342434648086
11132069 177 18187372038582205866
12032990 46 18411411817692035578
14128692 85 18334579018536648148
14252887 29 18187915197136708978
14993402 34 18187652387866048190
16945 1 18122343471703535525
18186145 218 17275102838637985598
193761 8 17690279314002058278
20201158 50 18342458157495073042
20281407 28 18260550043389915162
20711985 344 17986971814882544685
20871998 184 18115870865809806012
20871998 22 18261942046411572830
23402539 116 18409739482229074718
23463225 33 18411135857453255100
23552423 10 18343301427205511957
23559900 14 18268153231300893770
25610 137 18341607114537179108
2748010 2 18410866459655932252
3312278 4 18272367602628164746
5493415 88 18270677567383300923
7364860 26 18190463753447267344
81228 2 18123176068357187408
8809292 202 18130781235641142483

> <PUBCHEM_SHAPE_MULTIPOLES>
234.86
5.91
1.63
0.71
2.49
0.64
0
-1.98
-0.01
-0.02
0
-0.35
-0.14
0

> <PUBCHEM_SHAPE_SELFOVERLAP>
493.054

> <PUBCHEM_SHAPE_VOLUME>
132.5

> <PUBCHEM_COORDINATE_TYPE>
2
5
10

$$$$

