47205454
  -OEChem-06241222583D

 34 35  0     0  0  0  0  0  0999 V2000
   -4.9575   -0.5560   -0.3767 S   0  0  0  0  0  0  0  0  0  0  0  0
    6.5707   -1.0096   -0.1924 F   0  0  0  0  0  0  0  0  0  0  0  0
   -5.8760   -1.5635    0.1153 O   0  0  0  0  0  0  0  0  0  0  0  0
   -5.2854    0.2536   -1.5337 O   0  0  0  0  0  0  0  0  0  0  0  0
    0.2837   -0.5103    1.3314 O   0  0  0  0  0  0  0  0  0  0  0  0
   -2.1248    0.5014    0.4434 N   0  0  0  0  0  0  0  0  0  0  0  0
    1.3989    0.9863   -0.0926 N   0  0  0  0  0  0  0  0  0  0  0  0
   -4.5558    0.5295    0.9716 C   0  0  0  0  0  0  0  0  0  0  0  0
   -3.3867   -1.3350   -0.6638 C   0  0  0  0  0  0  0  0  0  0  0  0
   -3.3059    1.3502    0.6772 C   0  0  0  0  0  0  0  0  0  0  0  0
   -2.2649   -0.3098   -0.7782 C   0  0  0  0  0  0  0  0  0  0  0  0
   -0.9231    1.3350    0.3520 C   0  0  0  0  0  0  0  0  0  0  0  0
    0.3057    0.4798    0.6073 C   0  0  0  0  0  0  0  0  0  0  0  0
    2.7192    0.4770   -0.1180 C   0  0  0  0  0  0  0  0  0  0  0  0
    3.6984    1.1150   -0.8797 C   0  0  0  0  0  0  0  0  0  0  0  0
    3.0411   -0.6631    0.6182 C   0  0  0  0  0  0  0  0  0  0  0  0
    4.9993    0.6127   -0.9052 C   0  0  0  0  0  0  0  0  0  0  0  0
    4.3420   -1.1655    0.5927 C   0  0  0  0  0  0  0  0  0  0  0  0
    5.3211   -0.5276   -0.1689 C   0  0  0  0  0  0  0  0  0  0  0  0
   -4.4188   -0.0909    1.8637 H   0  0  0  0  0  0  0  0  0  0  0  0
   -5.4203    1.1808    1.1326 H   0  0  0  0  0  0  0  0  0  0  0  0
   -3.4774   -1.9174   -1.5858 H   0  0  0  0  0  0  0  0  0  0  0  0
   -3.2052   -2.0265    0.1660 H   0  0  0  0  0  0  0  0  0  0  0  0
   -2.4351    0.3344   -1.6509 H   0  0  0  0  0  0  0  0  0  0  0  0
   -1.3418   -0.8690   -0.9724 H   0  0  0  0  0  0  0  0  0  0  0  0
   -3.1309    1.9916    1.5499 H   0  0  0  0  0  0  0  0  0  0  0  0
   -3.4800    2.0134   -0.1801 H   0  0  0  0  0  0  0  0  0  0  0  0
   -0.9128    2.0949    1.1444 H   0  0  0  0  0  0  0  0  0  0  0  0
   -0.8685    1.8602   -0.6092 H   0  0  0  0  0  0  0  0  0  0  0  0
    1.2558    1.8239   -0.6525 H   0  0  0  0  0  0  0  0  0  0  0  0
    3.4610    2.0042   -1.4581 H   0  0  0  0  0  0  0  0  0  0  0  0
    2.3398   -1.2114    1.2310 H   0  0  0  0  0  0  0  0  0  0  0  0
    5.7621    1.1090   -1.4979 H   0  0  0  0  0  0  0  0  0  0  0  0
    4.5944   -2.0530    1.1656 H   0  0  0  0  0  0  0  0  0  0  0  0
  1  3  2  0  0  0  0
  1  4  2  0  0  0  0
  1  8  1  0  0  0  0
  1  9  1  0  0  0  0
  2 19  1  0  0  0  0
  5 13  2  0  0  0  0
  6 10  1  0  0  0  0
  6 11  1  0  0  0  0
  6 12  1  0  0  0  0
  7 13  1  0  0  0  0
  7 14  1  0  0  0  0
  7 30  1  0  0  0  0
  8 10  1  0  0  0  0
  8 20  1  0  0  0  0
  8 21  1  0  0  0  0
  9 11  1  0  0  0  0
  9 22  1  0  0  0  0
  9 23  1  0  0  0  0
 10 26  1  0  0  0  0
 10 27  1  0  0  0  0
 11 24  1  0  0  0  0
 11 25  1  0  0  0  0
 12 13  1  0  0  0  0
 12 28  1  0  0  0  0
 12 29  1  0  0  0  0
 14 15  2  0  0  0  0
 14 16  1  0  0  0  0
 15 17  1  0  0  0  0
 15 31  1  0  0  0  0
 16 18  2  0  0  0  0
 16 32  1  0  0  0  0
 17 19  2  0  0  0  0
 17 33  1  0  0  0  0
 18 19  1  0  0  0  0
 18 34  1  0  0  0  0
M  END
> <PUBCHEM_COMPOUND_CID>
47205454

> <PUBCHEM_CONFORMER_RMSD>
0.6

> <PUBCHEM_CONFORMER_DIVERSEORDER>
2
42
11
44
41
43
45
53
50
40
25
6
22
54
37
18
17
16
13
27
34
29
5
55
26
51
4
52
36
3
38
21
39
28
57
19
47
31
35
12
33
46
15
1
49
7
30
14
8
23
32
56
10
24
9
48
20

> <PUBCHEM_MMFF94_PARTIAL_CHARGES>
24
1 1.09
10 0.27
11 0.27
12 0.33
13 0.57
14 0.12
15 -0.15
16 -0.15
17 -0.15
18 -0.15
19 0.19
2 -0.19
3 -0.65
30 0.37
31 0.15
32 0.15
33 0.15
34 0.15
4 -0.65
5 -0.57
6 -0.81
7 -0.55
8 0.11
9 0.11

> <PUBCHEM_EFFECTIVE_ROTOR_COUNT>
5

> <PUBCHEM_PHARMACOPHORE_FEATURES>
7
1 3 acceptor
1 4 acceptor
1 5 acceptor
1 6 cation
1 7 donor
6 1 6 8 9 10 11 rings
6 14 15 16 17 18 19 rings

> <PUBCHEM_HEAVY_ATOM_COUNT>
19

> <PUBCHEM_ATOM_DEF_STEREO_COUNT>
0

> <PUBCHEM_ATOM_UDEF_STEREO_COUNT>
0

> <PUBCHEM_BOND_DEF_STEREO_COUNT>
0

> <PUBCHEM_BOND_UDEF_STEREO_COUNT>
0

> <PUBCHEM_ISOTOPIC_ATOM_COUNT>
0

> <PUBCHEM_COMPONENT_COUNT>
1

> <PUBCHEM_CACTVS_TAUTO_COUNT>
2

> <PUBCHEM_CONFORMER_ID>
02D04C4E00000002

> <PUBCHEM_MMFF94_ENERGY>
39.3243

> <PUBCHEM_FEATURE_SELFOVERLAP>
35.537

> <PUBCHEM_SHAPE_MULTIPOLES>
360.02
15.36
1.38
1.08
3.2
0.05
0.08
4.71
2.52
-0.49
-0.05
-0.39
-0.04
-1.06

> <PUBCHEM_SHAPE_SELFOVERLAP>
736.36

> <PUBCHEM_SHAPE_VOLUME>
208.8

> <PUBCHEM_COORDINATE_TYPE>
2
5
10

$$$$

