586156
  -OEChem-06241222453D

 17 17  0     0  0  0  0  0  0999 V2000
    0.6340    0.9487    0.0035 N   0  0  0  0  0  0  0  0  0  0  0  0
   -0.0577   -1.3490    0.0019 N   0  0  0  0  0  0  0  0  0  0  0  0
   -1.7017    0.3988   -0.0028 N   0  0  0  0  0  0  0  0  0  0  0  0
   -0.9953    2.6350    0.0005 N   0  0  0  0  0  0  0  0  0  0  0  0
   -2.3468   -1.8557   -0.0028 N   0  0  0  0  0  0  0  0  0  0  0  0
    0.8655   -0.3740    0.0043 C   0  0  0  0  0  0  0  0  0  0  0  0
   -0.6720    1.2607    0.0001 C   0  0  0  0  0  0  0  0  0  0  0  0
   -1.3189   -0.8882   -0.0015 C   0  0  0  0  0  0  0  0  0  0  0  0
    2.2561   -0.7927    0.0076 C   0  0  0  0  0  0  0  0  0  0  0  0
    3.3370    0.0164   -0.0107 C   0  0  0  0  0  0  0  0  0  0  0  0
    2.4287   -1.8664    0.0238 H   0  0  0  0  0  0  0  0  0  0  0  0
   -1.9657    2.9174   -0.0020 H   0  0  0  0  0  0  0  0  0  0  0  0
   -0.2525    3.3202    0.0029 H   0  0  0  0  0  0  0  0  0  0  0  0
   -2.1056   -2.8372   -0.0016 H   0  0  0  0  0  0  0  0  0  0  0  0
   -3.3119   -1.5558   -0.0048 H   0  0  0  0  0  0  0  0  0  0  0  0
    4.3339   -0.4120   -0.0073 H   0  0  0  0  0  0  0  0  0  0  0  0
    3.2548    1.0975   -0.0291 H   0  0  0  0  0  0  0  0  0  0  0  0
  1  6  2  0  0  0  0
  1  7  1  0  0  0  0
  2  6  1  0  0  0  0
  2  8  2  0  0  0  0
  3  7  2  0  0  0  0
  3  8  1  0  0  0  0
  4  7  1  0  0  0  0
  4 12  1  0  0  0  0
  4 13  1  0  0  0  0
  5  8  1  0  0  0  0
  5 14  1  0  0  0  0
  5 15  1  0  0  0  0
  6  9  1  0  0  0  0
  9 10  2  0  0  0  0
  9 11  1  0  0  0  0
 10 16  1  0  0  0  0
 10 17  1  0  0  0  0
M  END
> <PUBCHEM_COMPOUND_CID>
586156

> <PUBCHEM_CONFORMER_RMSD>
0.4

> <PUBCHEM_CONFORMER_DIVERSEORDER>
1

> <PUBCHEM_MMFF94_PARTIAL_CHARGES>
17
1 -0.62
10 -0.3
11 0.15
12 0.4
13 0.4
14 0.4
15 0.4
16 0.15
17 0.15
2 -0.62
3 -0.62
4 -0.9
5 -0.9
6 0.65
7 0.72
8 0.72
9 -0.18

> <PUBCHEM_EFFECTIVE_ROTOR_COUNT>
1

> <PUBCHEM_PHARMACOPHORE_FEATURES>
6
1 10 hydrophobe
1 4 donor
1 5 donor
4 1 3 4 7 cation
4 2 3 5 8 cation
6 1 2 3 6 7 8 rings

> <PUBCHEM_HEAVY_ATOM_COUNT>
10

> <PUBCHEM_ATOM_DEF_STEREO_COUNT>
0

> <PUBCHEM_ATOM_UDEF_STEREO_COUNT>
0

> <PUBCHEM_BOND_DEF_STEREO_COUNT>
0

> <PUBCHEM_BOND_UDEF_STEREO_COUNT>
0

> <PUBCHEM_ISOTOPIC_ATOM_COUNT>
0

> <PUBCHEM_COMPONENT_COUNT>
1

> <PUBCHEM_CACTVS_TAUTO_COUNT>
5

> <PUBCHEM_CONFORMER_ID>
0008F1AC00000001

> <PUBCHEM_MMFF94_ENERGY>
28.5439

> <PUBCHEM_FEATURE_SELFOVERLAP>
30.489

> <PUBCHEM_SHAPE_FINGERPRINT>
10857977 72 18336276639010326562
12716758 59 18192147320550101814
16945 1 18338517550860188168
193761 8 17978511163127397795
20871998 184 18259983777410713134
21040471 1 17978229683792033056
23552423 10 18200589310809705414
23552449 1 18409731772335289384
241688 4 18338518543034641673
2748010 2 18265342711279930317
369184 2 18341615953416292058

> <PUBCHEM_SHAPE_MULTIPOLES>
180.89
3.58
2.07
0.57
2.82
0.92
0
-0.86
-0.01
-1.57
0
0.05
-0.01
0

> <PUBCHEM_SHAPE_SELFOVERLAP>
371.788

> <PUBCHEM_SHAPE_VOLUME>
95.8

> <PUBCHEM_COORDINATE_TYPE>
2
5
10

$$$$

