854042
  -OEChem-06241222473D

 22 23  0     0  0  0  0  0  0999 V2000
   -3.1314    2.2764    0.1812 Cl  0  0  0  0  0  0  0  0  0  0  0  0
    2.3766   -0.6598    0.4800 O   0  0  0  0  0  0  0  0  0  0  0  0
    0.5293   -2.3082   -0.2020 O   0  0  0  0  0  0  0  0  0  0  0  0
    3.7107   -0.2796    0.3980 N   0  0  0  0  0  0  0  0  0  0  0  0
    0.1866    0.0655   -0.0379 C   0  0  0  0  0  0  0  0  0  0  0  0
   -2.5666   -0.3826   -0.0067 C   0  0  0  0  0  0  0  0  0  0  0  0
   -0.3090   -1.2362   -0.1128 C   0  0  0  0  0  0  0  0  0  0  0  0
   -0.6945    1.1431    0.0527 C   0  0  0  0  0  0  0  0  0  0  0  0
   -1.6856   -1.4603   -0.0971 C   0  0  0  0  0  0  0  0  0  0  0  0
    1.6091    0.3186   -0.0531 C   0  0  0  0  0  0  0  0  0  0  0  0
   -2.0710    0.9190    0.0683 C   0  0  0  0  0  0  0  0  0  0  0  0
   -4.0343   -0.6648    0.0070 C   0  0  0  0  0  0  0  0  0  0  0  0
    2.3879    1.3469   -0.4917 C   0  0  0  0  0  0  0  0  0  0  0  0
    3.6923    0.9220   -0.1858 C   0  0  0  0  0  0  0  0  0  0  0  0
   -0.3172    2.1620    0.1165 H   0  0  0  0  0  0  0  0  0  0  0  0
   -2.0606   -2.4793   -0.1560 H   0  0  0  0  0  0  0  0  0  0  0  0
   -4.4866   -0.3051    0.9371 H   0  0  0  0  0  0  0  0  0  0  0  0
   -4.5259   -0.1872   -0.8469 H   0  0  0  0  0  0  0  0  0  0  0  0
   -4.2444   -1.7381   -0.0594 H   0  0  0  0  0  0  0  0  0  0  0  0
    2.0768    2.2670   -0.9639 H   0  0  0  0  0  0  0  0  0  0  0  0
    4.6277    1.4322   -0.3623 H   0  0  0  0  0  0  0  0  0  0  0  0
    1.4375   -2.0230   -0.3878 H   0  0  0  0  0  0  0  0  0  0  0  0
  1 11  1  0  0  0  0
  2  4  1  0  0  0  0
  2 10  1  0  0  0  0
  3  7  1  0  0  0  0
  3 22  1  0  0  0  0
  4 14  2  0  0  0  0
  5  7  2  0  0  0  0
  5  8  1  0  0  0  0
  5 10  1  0  0  0  0
  6  9  2  0  0  0  0
  6 11  1  0  0  0  0
  6 12  1  0  0  0  0
  7  9  1  0  0  0  0
  8 11  2  0  0  0  0
  8 15  1  0  0  0  0
  9 16  1  0  0  0  0
 10 13  2  0  0  0  0
 12 17  1  0  0  0  0
 12 18  1  0  0  0  0
 12 19  1  0  0  0  0
 13 14  1  0  0  0  0
 13 20  1  0  0  0  0
 14 21  1  0  0  0  0
M  END
> <PUBCHEM_COMPOUND_CID>
854042

> <PUBCHEM_CONFORMER_RMSD>
0.4

> <PUBCHEM_CONFORMER_DIVERSEORDER>
2
5
4
1
3
6

> <PUBCHEM_MMFF94_PARTIAL_CHARGES>
19
1 -0.18
10 0.09
11 0.18
12 0.14
13 -0.15
14 0.14
15 0.15
16 0.15
2 -0.02
20 0.15
21 0.15
22 0.45
3 -0.53
4 -0.41
5 0.05
6 -0.14
7 0.08
8 -0.15
9 -0.15

> <PUBCHEM_EFFECTIVE_ROTOR_COUNT>
1

> <PUBCHEM_PHARMACOPHORE_FEATURES>
4
1 3 donor
1 4 acceptor
5 2 4 10 13 14 rings
6 5 6 7 8 9 11 rings

> <PUBCHEM_HEAVY_ATOM_COUNT>
14

> <PUBCHEM_ATOM_DEF_STEREO_COUNT>
0

> <PUBCHEM_ATOM_UDEF_STEREO_COUNT>
0

> <PUBCHEM_BOND_DEF_STEREO_COUNT>
0

> <PUBCHEM_BOND_UDEF_STEREO_COUNT>
0

> <PUBCHEM_ISOTOPIC_ATOM_COUNT>
0

> <PUBCHEM_COMPONENT_COUNT>
1

> <PUBCHEM_CACTVS_TAUTO_COUNT>
9

> <PUBCHEM_CONFORMER_ID>
000D081A00000002

> <PUBCHEM_MMFF94_ENERGY>
30.6111

> <PUBCHEM_FEATURE_SELFOVERLAP>
20.297

> <PUBCHEM_SHAPE_FINGERPRINT>
10465860 228 18119521295916914377
10608611 8 18335423447978402024
10967382 1 18410573959386941638
11132069 177 18335706005075413483
11680986 33 18048029963378838775
12251169 10 18343022172842781920
12491281 212 18342449344280178032
12932764 1 17386014952676098910
13140716 1 18121212078987000979
13380535 21 18191577752157513961
13380535 76 18338800129975868271
14144814 61 18413108355422427112
14325111 11 18410855473145172844
14614273 12 18343024427996245677
14897335 6 18265054811459575109
14993402 34 18343300327678014708
15042514 8 18194118521365888547
15219456 202 18187639275383653935
15442244 35 18340772662447151610
15536298 74 18189333631365812286
15669948 3 18263365789563164758
15775835 57 18341889710141833296
16945 1 18336544932732366551
18186145 218 17967806163369016048
193761 8 18049722116174117111
19422 9 18202562878140825064
200 152 18335150769553169095
20510252 161 18260263040648162441
20645476 183 17772736187567852270
20871998 184 18116708521892890311
21267235 1 18340760481825123410
21501502 16 18266463281469968691
21524375 3 18411983580723020015
2334 1 18337107985886315751
23402539 116 18334585603222588751
23402655 69 18190757508468668213
23463225 33 18342460365345451554
23559900 14 18113617915868031720
2748010 2 18193546990394143151
43471831 8 18341052998809740131
474 4 17201351859476538372
5104073 3 18412828005795831104
53812653 8 18410291385062126999
69090 78 18113902611010054406
7364860 26 18045498874484203622

> <PUBCHEM_SHAPE_MULTIPOLES>
273.26
6.44
2.02
0.65
1.52
0.06
-0.01
1.5
0.25
-1.08
-0.06
0.07
0.03
-0.34

> <PUBCHEM_SHAPE_SELFOVERLAP>
585.956

> <PUBCHEM_SHAPE_VOLUME>
153.1

> <PUBCHEM_COORDINATE_TYPE>
2
5
10

$$$$

