11268
  -OEChem-06261205283D

 17 16  0     1  0  0  0  0  0999 V2000
    0.3884    2.2610    0.7155 Br  0  0  0  0  0  0  0  0  0  0  0  0
    1.5576   -1.4954    0.4092 O   0  0  0  0  0  0  0  0  0  0  0  0
    1.6074    0.1406   -1.1566 O   0  0  0  0  0  0  0  0  0  0  0  0
   -1.3789    0.0299    0.2497 C   0  0  0  0  0  0  0  0  0  0  0  0
    0.0541    0.3258    0.7178 C   0  0  1  0  0  0  0  0  0  0  0  0
   -1.6875    0.5167   -1.1707 C   0  0  0  0  0  0  0  0  0  0  0  0
   -1.6876   -1.4677    0.3514 C   0  0  0  0  0  0  0  0  0  0  0  0
    1.1465   -0.3108   -0.1163 C   0  0  0  0  0  0  0  0  0  0  0  0
   -2.0708    0.5498    0.9263 H   0  0  0  0  0  0  0  0  0  0  0  0
    0.1915    0.0415    1.7671 H   0  0  0  0  0  0  0  0  0  0  0  0
   -1.0323    0.0465   -1.9109 H   0  0  0  0  0  0  0  0  0  0  0  0
   -2.7192    0.2649   -1.4418 H   0  0  0  0  0  0  0  0  0  0  0  0
   -1.5929    1.6014   -1.2687 H   0  0  0  0  0  0  0  0  0  0  0  0
   -2.7459   -1.6577    0.1418 H   0  0  0  0  0  0  0  0  0  0  0  0
   -1.0981   -2.0533   -0.3618 H   0  0  0  0  0  0  0  0  0  0  0  0
   -1.4775   -1.8413    1.3592 H   0  0  0  0  0  0  0  0  0  0  0  0
    2.2539   -1.9160   -0.1390 H   0  0  0  0  0  0  0  0  0  0  0  0
  1  5  1  0  0  0  0
  2  8  1  0  0  0  0
  2 17  1  0  0  0  0
  3  8  2  0  0  0  0
  4  5  1  0  0  0  0
  4  6  1  0  0  0  0
  4  7  1  0  0  0  0
  4  9  1  0  0  0  0
  5  8  1  0  0  0  0
  5 10  1  0  0  0  0
  6 11  1  0  0  0  0
  6 12  1  0  0  0  0
  6 13  1  0  0  0  0
  7 14  1  0  0  0  0
  7 15  1  0  0  0  0
  7 16  1  0  0  0  0
M  END
> <PUBCHEM_COMPOUND_CID>
11268

> <PUBCHEM_CONFORMER_RMSD>
0.4

> <PUBCHEM_CONFORMER_DIVERSEORDER>
1
2
8
7
6
3
4
9
5

> <PUBCHEM_MMFF94_PARTIAL_CHARGES>
6
1 -0.23
17 0.5
2 -0.65
3 -0.57
5 0.29
8 0.66

> <PUBCHEM_EFFECTIVE_ROTOR_COUNT>
2

> <PUBCHEM_PHARMACOPHORE_FEATURES>
5
1 1 hydrophobe
1 2 acceptor
1 3 acceptor
3 2 3 8 anion
3 4 6 7 hydrophobe

> <PUBCHEM_HEAVY_ATOM_COUNT>
8

> <PUBCHEM_ATOM_DEF_STEREO_COUNT>
0

> <PUBCHEM_ATOM_UDEF_STEREO_COUNT>
1

> <PUBCHEM_BOND_DEF_STEREO_COUNT>
0

> <PUBCHEM_BOND_UDEF_STEREO_COUNT>
0

> <PUBCHEM_ISOTOPIC_ATOM_COUNT>
0

> <PUBCHEM_COMPONENT_COUNT>
1

> <PUBCHEM_CACTVS_TAUTO_COUNT>
1

> <PUBCHEM_CONFORMER_ID>
00002C0400000001

> <PUBCHEM_MMFF94_ENERGY>
10.9436

> <PUBCHEM_FEATURE_SELFOVERLAP>
25.431

> <PUBCHEM_SHAPE_FINGERPRINT>
12423570 1 15178632883312497713
137420 1 15232530372054204600
18185500 45 18339350967794616762
20711978 78 17751915826946980911
21040471 1 17773337779579139317
23211744 25 18052799374131287204
24536 1 17676769769065677091
29004967 10 18113611257640009946
5943 1 6899489890389195241

> <PUBCHEM_SHAPE_MULTIPOLES>
158.84
2.3
1.95
1.09
0.83
0.17
0.28
0.03
0.07
-0.92
-0.28
0.03
0.13
0.55

> <PUBCHEM_SHAPE_SELFOVERLAP>
281.029

> <PUBCHEM_SHAPE_VOLUME>
106.3

> <PUBCHEM_COORDINATE_TYPE>
2
5
10

$$$$

