13267
  -OEChem-06261208173D

 32 33  0     1  0  0  0  0  0999 V2000
    0.0972   -1.8562    0.7507 O   0  0  0  0  0  0  0  0  0  0  0  0
   -0.5102    2.5693   -0.5608 O   0  0  0  0  0  0  0  0  0  0  0  0
   -4.1591    0.0300    0.5447 O   0  0  0  0  0  0  0  0  0  0  0  0
   -0.1447    0.3219   -0.0475 N   0  0  0  0  0  0  0  0  0  0  0  0
   -2.3127    1.2672   -0.0400 N   0  0  0  0  0  0  0  0  0  0  0  0
    1.2841    0.5063   -0.1310 C   0  0  0  0  0  0  0  0  0  0  0  0
    1.9373    0.3055    1.2389 C   0  0  0  0  0  0  0  0  0  0  0  0
    1.8860   -0.4336   -1.1783 C   0  0  0  0  0  0  0  0  0  0  0  0
    3.4556    0.4427    1.1631 C   0  0  0  0  0  0  0  0  0  0  0  0
    3.4046   -0.2971   -1.2503 C   0  0  0  0  0  0  0  0  0  0  0  0
    4.0534   -0.4938    0.1170 C   0  0  0  0  0  0  0  0  0  0  0  0
   -0.6169   -0.9360    0.3467 C   0  0  0  0  0  0  0  0  0  0  0  0
   -2.1047   -1.1461    0.1853 C   0  0  1  0  0  0  0  0  0  0  0  0
   -0.9502    1.4579   -0.2537 C   0  0  0  0  0  0  0  0  0  0  0  0
   -2.9603    0.0880    0.2734 C   0  0  0  0  0  0  0  0  0  0  0  0
   -2.3594   -1.8260   -1.1582 C   0  0  0  0  0  0  0  0  0  0  0  0
    1.5134    1.5301   -0.4513 H   0  0  0  0  0  0  0  0  0  0  0  0
    1.7274   -0.6684    1.6866 H   0  0  0  0  0  0  0  0  0  0  0  0
    1.5448    1.0493    1.9441 H   0  0  0  0  0  0  0  0  0  0  0  0
    1.4568   -0.2110   -2.1634 H   0  0  0  0  0  0  0  0  0  0  0  0
    1.6548   -1.4852   -0.9807 H   0  0  0  0  0  0  0  0  0  0  0  0
    3.8961    0.2306    2.1439 H   0  0  0  0  0  0  0  0  0  0  0  0
    3.7160    1.4792    0.9153 H   0  0  0  0  0  0  0  0  0  0  0  0
    3.6632    0.6966   -1.6366 H   0  0  0  0  0  0  0  0  0  0  0  0
    3.8083   -1.0286   -1.9594 H   0  0  0  0  0  0  0  0  0  0  0  0
    5.1328   -0.3214    0.0412 H   0  0  0  0  0  0  0  0  0  0  0  0
    3.9171   -1.5337    0.4385 H   0  0  0  0  0  0  0  0  0  0  0  0
   -2.4220   -1.8090    1.0006 H   0  0  0  0  0  0  0  0  0  0  0  0
   -2.8931    2.1002   -0.0874 H   0  0  0  0  0  0  0  0  0  0  0  0
   -1.7970   -2.7627   -1.2376 H   0  0  0  0  0  0  0  0  0  0  0  0
   -3.4224   -2.0563   -1.2879 H   0  0  0  0  0  0  0  0  0  0  0  0
   -2.0546   -1.1854   -1.9940 H   0  0  0  0  0  0  0  0  0  0  0  0
  1 12  2  0  0  0  0
  2 14  2  0  0  0  0
  3 15  2  0  0  0  0
  4  6  1  0  0  0  0
  4 12  1  0  0  0  0
  4 14  1  0  0  0  0
  5 14  1  0  0  0  0
  5 15  1  0  0  0  0
  5 29  1  0  0  0  0
  6  7  1  0  0  0  0
  6  8  1  0  0  0  0
  6 17  1  0  0  0  0
  7  9  1  0  0  0  0
  7 18  1  0  0  0  0
  7 19  1  0  0  0  0
  8 10  1  0  0  0  0
  8 20  1  0  0  0  0
  8 21  1  0  0  0  0
  9 11  1  0  0  0  0
  9 22  1  0  0  0  0
  9 23  1  0  0  0  0
 10 11  1  0  0  0  0
 10 24  1  0  0  0  0
 10 25  1  0  0  0  0
 11 26  1  0  0  0  0
 11 27  1  0  0  0  0
 12 13  1  0  0  0  0
 13 15  1  0  0  0  0
 13 16  1  0  0  0  0
 13 28  1  0  0  0  0
 16 30  1  0  0  0  0
 16 31  1  0  0  0  0
 16 32  1  0  0  0  0
M  END
> <PUBCHEM_COMPOUND_CID>
13267

> <PUBCHEM_CONFORMER_RMSD>
0.6

> <PUBCHEM_CONFORMER_DIVERSEORDER>
1
5
6
4
3
2

> <PUBCHEM_MMFF94_PARTIAL_CHARGES>
11
1 -0.57
12 0.57
13 0.12
14 0.69
15 0.57
2 -0.57
29 0.37
3 -0.57
4 -0.42
5 -0.49
6 0.3

> <PUBCHEM_EFFECTIVE_ROTOR_COUNT>
2.8

> <PUBCHEM_PHARMACOPHORE_FEATURES>
7
1 1 acceptor
1 13 anion
1 2 acceptor
1 3 acceptor
1 5 donor
6 4 5 12 13 14 15 rings
6 6 7 8 9 10 11 rings

> <PUBCHEM_HEAVY_ATOM_COUNT>
16

> <PUBCHEM_ATOM_DEF_STEREO_COUNT>
0

> <PUBCHEM_ATOM_UDEF_STEREO_COUNT>
1

> <PUBCHEM_BOND_DEF_STEREO_COUNT>
0

> <PUBCHEM_BOND_UDEF_STEREO_COUNT>
0

> <PUBCHEM_ISOTOPIC_ATOM_COUNT>
0

> <PUBCHEM_COMPONENT_COUNT>
1

> <PUBCHEM_CACTVS_TAUTO_COUNT>
3

> <PUBCHEM_CONFORMER_ID>
000033D300000001

> <PUBCHEM_MMFF94_ENERGY>
30.5676

> <PUBCHEM_FEATURE_SELFOVERLAP>
35.52

> <PUBCHEM_SHAPE_FINGERPRINT>
11132069 177 18334865995408747552
12236239 1 17274820268502591184
12932764 1 18333734636809546090
13538477 17 17632570514089019138
13581323 91 18272090526140953224
14614273 12 17987805249075476733
14993402 34 17489863847710909350
15219456 202 17821731615633935448
15775835 57 18409730698424784082
16752209 62 18130520715788561845
16945 1 18411423925046457565
18175812 5 17749108863839531076
18186145 218 17968094248284285130
19049666 15 17824821389384476684
19141452 34 17967812726342834055
200 152 15626225714695458792
20201158 50 17894625976675540454
20279233 1 17821445763980211094
20510252 161 18337109067917868544
20645476 183 17274809217108977755
21452121 199 17179706765744374023
21501502 16 18117561730009861376
23402539 116 18412551998370321470
23419403 2 17107401871958154189
23557571 272 18114745928017893946
23559900 14 18335982060700124078
2748010 2 18126005958094645033
296302 2 16732984202235449394
3286 77 17240774917176665922
43471831 8 18130510854401700050
474 4 16628818588608917836
53812653 8 17989200469058929748
6333449 129 18187651305629176439
69090 78 17894353276285393167
74978 22 17986952951264542994
77492 1 17274821367908756408
81228 2 18339913909105609336

> <PUBCHEM_SHAPE_MULTIPOLES>
301.7
6.41
1.76
1.15
1.45
0.33
-0.05
-0.74
0.45
-1.09
-0.36
0.7
-0.13
0.21

> <PUBCHEM_SHAPE_SELFOVERLAP>
627.651

> <PUBCHEM_SHAPE_VOLUME>
168.1

> <PUBCHEM_COORDINATE_TYPE>
2
5
10

$$$$

