13514
  -OEChem-06241222393D

 10  9  0     0  0  0  0  0  0999 V2000
    1.0835   -0.9316   -1.4580 Cl  0  0  0  0  0  0  0  0  0  0  0  0
    0.9914   -1.0170    1.4430 Cl  0  0  0  0  0  0  0  0  0  0  0  0
    1.4486    1.5139    0.0473 Cl  0  0  0  0  0  0  0  0  0  0  0  0
   -1.3996    1.3142   -0.0010 O   0  0  0  0  0  0  0  0  0  0  0  0
    0.6006   -0.0439    0.0101 C   0  0  0  0  0  0  0  0  0  0  0  0
   -0.9038    0.1843   -0.0023 C   0  0  0  0  0  0  0  0  0  0  0  0
   -1.8208   -1.0199   -0.0391 C   0  0  0  0  0  0  0  0  0  0  0  0
   -2.8577   -0.6780   -0.1180 H   0  0  0  0  0  0  0  0  0  0  0  0
   -1.6080   -1.6439   -0.9091 H   0  0  0  0  0  0  0  0  0  0  0  0
   -1.7279   -1.6030    0.8792 H   0  0  0  0  0  0  0  0  0  0  0  0
  1  5  1  0  0  0  0
  2  5  1  0  0  0  0
  3  5  1  0  0  0  0
  4  6  2  0  0  0  0
  5  6  1  0  0  0  0
  6  7  1  0  0  0  0
  7  8  1  0  0  0  0
  7  9  1  0  0  0  0
  7 10  1  0  0  0  0
M  END
> <PUBCHEM_COMPOUND_CID>
13514

> <PUBCHEM_CONFORMER_RMSD>
0.4

> <PUBCHEM_CONFORMER_DIVERSEORDER>
1
2

> <PUBCHEM_MMFF94_PARTIAL_CHARGES>
7
1 -0.29
2 -0.29
3 -0.29
4 -0.57
5 0.93
6 0.45
7 0.06

> <PUBCHEM_EFFECTIVE_ROTOR_COUNT>
1

> <PUBCHEM_PHARMACOPHORE_FEATURES>
1
1 4 acceptor

> <PUBCHEM_HEAVY_ATOM_COUNT>
7

> <PUBCHEM_ATOM_DEF_STEREO_COUNT>
0

> <PUBCHEM_ATOM_UDEF_STEREO_COUNT>
0

> <PUBCHEM_BOND_DEF_STEREO_COUNT>
0

> <PUBCHEM_BOND_UDEF_STEREO_COUNT>
0

> <PUBCHEM_ISOTOPIC_ATOM_COUNT>
0

> <PUBCHEM_COMPONENT_COUNT>
1

> <PUBCHEM_CACTVS_TAUTO_COUNT>
2

> <PUBCHEM_CONFORMER_ID>
000034CA00000001

> <PUBCHEM_MMFF94_ENERGY>
9.3048

> <PUBCHEM_FEATURE_SELFOVERLAP>
5.074

> <PUBCHEM_SHAPE_FINGERPRINT>
16714656 1 17609776392320083940
18185500 45 17843695601254218587
21040471 1 17834114525891828485
24536 1 18041003989529748521
29004967 10 17973424526000140091
5084963 1 18268995271886061312
5943 1 5069904800980608202

> <PUBCHEM_SHAPE_MULTIPOLES>
143.8
2.13
1.59
1.28
0.69
0.33
0.01
0.22
0.05
-0.27
-0.04
-0.55
-0.71
0.02

> <PUBCHEM_SHAPE_SELFOVERLAP>
242.396

> <PUBCHEM_SHAPE_VOLUME>
98.6

> <PUBCHEM_COORDINATE_TYPE>
2
5
10

$$$$

