17396351
  -OEChem-06241222562D

 37 39  0     1  0  0  0  0  0999 V2000
    4.3794    0.2820    0.0000 S   0  0  0  0  0  0  0  0  0  0  0  0
   10.5740   -1.2472    0.0000 O   0  0  0  0  0  0  0  0  0  0  0  0
   10.5740    0.8222    0.0000 O   0  0  0  0  0  0  0  0  0  0  0  0
    5.3500   -2.2125    0.0000 O   0  0  0  0  0  0  0  0  0  0  0  0
    2.0000    1.5080    0.0000 O   0  5  0  0  0  0  0  0  0  0  0  0
    3.5823    2.2125    0.0000 O   0  0  0  0  0  0  0  0  0  0  0  0
    6.2160   -0.7125    0.0000 N   0  0  0  0  0  0  0  0  0  0  0  0
    2.9945    1.4035    0.0000 N   0  3  0  0  0  0  0  0  0  0  0  0
    7.0820   -1.2125    0.0000 C   0  0  3  0  0  0  0  0  0  0  0  0
    7.9480   -0.7125    0.0000 C   0  0  0  0  0  0  0  0  0  0  0  0
    8.8141   -1.2125    0.0000 C   0  0  0  0  0  0  0  0  0  0  0  0
    9.6801   -0.7125    0.0000 C   0  0  0  0  0  0  0  0  0  0  0  0
    9.6801    0.2875    0.0000 C   0  0  0  0  0  0  0  0  0  0  0  0
    7.9480    0.2875    0.0000 C   0  0  0  0  0  0  0  0  0  0  0  0
    7.0820   -2.2125    0.0000 C   0  0  0  0  0  0  0  0  0  0  0  0
    8.8141    0.7875    0.0000 C   0  0  0  0  0  0  0  0  0  0  0  0
   11.4801   -0.7333    0.0000 C   0  0  0  0  0  0  0  0  0  0  0  0
   11.4801    0.3083    0.0000 C   0  0  0  0  0  0  0  0  0  0  0  0
    5.3500   -1.2125    0.0000 C   0  0  0  0  0  0  0  0  0  0  0  0
    4.4839   -0.7125    0.0000 C   0  0  0  0  0  0  0  0  0  0  0  0
    3.5704   -1.1192    0.0000 C   0  0  0  0  0  0  0  0  0  0  0  0
    2.9013   -0.3761    0.0000 C   0  0  0  0  0  0  0  0  0  0  0  0
    3.4013    0.4899    0.0000 C   0  0  0  0  0  0  0  0  0  0  0  0
    6.5451   -1.5225    0.0000 H   0  0  0  0  0  0  0  0  0  0  0  0
    8.8141   -1.8325    0.0000 H   0  0  0  0  0  0  0  0  0  0  0  0
    7.4111    0.5975    0.0000 H   0  0  0  0  0  0  0  0  0  0  0  0
    6.4620   -2.2125    0.0000 H   0  0  0  0  0  0  0  0  0  0  0  0
    7.0820   -2.8325    0.0000 H   0  0  0  0  0  0  0  0  0  0  0  0
    7.7020   -2.2125    0.0000 H   0  0  0  0  0  0  0  0  0  0  0  0
    6.2160   -0.0925    0.0000 H   0  0  0  0  0  0  0  0  0  0  0  0
    8.8141    1.4075    0.0000 H   0  0  0  0  0  0  0  0  0  0  0  0
   11.6892   -1.3170    0.0000 H   0  0  0  0  0  0  0  0  0  0  0  0
   12.0910   -0.6272    0.0000 H   0  0  0  0  0  0  0  0  0  0  0  0
   12.0910    0.2022    0.0000 H   0  0  0  0  0  0  0  0  0  0  0  0
   11.6892    0.8920    0.0000 H   0  0  0  0  0  0  0  0  0  0  0  0
    3.4415   -1.7257    0.0000 H   0  0  0  0  0  0  0  0  0  0  0  0
    2.2846   -0.4409    0.0000 H   0  0  0  0  0  0  0  0  0  0  0  0
  1 20  1  0  0  0  0
  1 23  1  0  0  0  0
  2 12  1  0  0  0  0
  2 17  1  0  0  0  0
  3 13  1  0  0  0  0
  3 18  1  0  0  0  0
  4 19  2  0  0  0  0
  5  8  1  0  0  0  0
  6  8  2  0  0  0  0
  7  9  1  0  0  0  0
  7 19  1  0  0  0  0
  7 30  1  0  0  0  0
  8 23  1  0  0  0  0
  9 10  1  0  0  0  0
  9 15  1  0  0  0  0
  9 24  1  0  0  0  0
 10 11  2  0  0  0  0
 10 14  1  0  0  0  0
 11 12  1  0  0  0  0
 11 25  1  0  0  0  0
 12 13  2  0  0  0  0
 13 16  1  0  0  0  0
 14 16  2  0  0  0  0
 14 26  1  0  0  0  0
 15 27  1  0  0  0  0
 15 28  1  0  0  0  0
 15 29  1  0  0  0  0
 16 31  1  0  0  0  0
 17 18  1  0  0  0  0
 17 32  1  0  0  0  0
 17 33  1  0  0  0  0
 18 34  1  0  0  0  0
 18 35  1  0  0  0  0
 19 20  1  0  0  0  0
 20 21  2  0  0  0  0
 21 22  1  0  0  0  0
 21 36  1  0  0  0  0
 22 23  2  0  0  0  0
 22 37  1  0  0  0  0
M  CHG  2   5  -1   8   1
M  END
> <PUBCHEM_COMPOUND_CID>
17396351

> <PUBCHEM_COMPOUND_CANONICALIZED>
1

> <PUBCHEM_CACTVS_COMPLEXITY>
458

> <PUBCHEM_CACTVS_HBOND_ACCEPTOR>
6

> <PUBCHEM_CACTVS_HBOND_DONOR>
1

> <PUBCHEM_CACTVS_ROTATABLE_BOND>
3

> <PUBCHEM_CACTVS_SUBSKEYS>
AAADccBzOABAAAAAAAAAAAAAAAAAASAAAAA0QAAAAAAAAACRwAAAHgQUAAAADCzh2AYyh4LQRAiNAiFSUwCDCIBkKhBoiJkO7MoNJjKktZuGOSrk1hGq6Ye40bMOIAABAAAAQABAAAIAAACAAAAAAAAAAA==

> <PUBCHEM_IUPAC_OPENEYE_NAME>
N-[1-(2,3-dihydro-1,4-benzodioxin-6-yl)ethyl]-5-nitro-thiophene-2-carboxamide

> <PUBCHEM_IUPAC_CAS_NAME>
N-[1-(2,3-dihydro-1,4-benzodioxin-6-yl)ethyl]-5-nitro-2-thiophenecarboxamide

> <PUBCHEM_IUPAC_NAME>
N-[1-(2,3-dihydro-1,4-benzodioxin-6-yl)ethyl]-5-nitrothiophene-2-carboxamide

> <PUBCHEM_IUPAC_SYSTEMATIC_NAME>
N-[1-(2,3-dihydro-1,4-benzodioxin-6-yl)ethyl]-5-nitro-thiophene-2-carboxamide

> <PUBCHEM_IUPAC_TRADITIONAL_NAME>
N-[1-(2,3-dihydro-1,4-benzodioxin-6-yl)ethyl]-5-nitro-thiophene-2-carboxamide

> <PUBCHEM_IUPAC_INCHI>
InChI=1S/C15H14N2O5S/c1-9(10-2-3-11-12(8-10)22-7-6-21-11)16-15(18)13-4-5-14(23-13)17(19)20/h2-5,8-9H,6-7H2,1H3,(H,16,18)

> <PUBCHEM_IUPAC_INCHIKEY>
UAQNSSXRWHWHFG-UHFFFAOYSA-N

> <PUBCHEM_XLOGP3_AA>
3

> <PUBCHEM_EXACT_MASS>
334.062343

> <PUBCHEM_MOLECULAR_FORMULA>
C15H14N2O5S

> <PUBCHEM_MOLECULAR_WEIGHT>
334.34706

> <PUBCHEM_OPENEYE_CAN_SMILES>
CC(C1=CC2=C(C=C1)OCCO2)NC(=O)C3=CC=C(S3)[N+](=O)[O-]

> <PUBCHEM_OPENEYE_ISO_SMILES>
CC(C1=CC2=C(C=C1)OCCO2)NC(=O)C3=CC=C(S3)[N+](=O)[O-]

> <PUBCHEM_CACTVS_TPSA>
122

> <PUBCHEM_MONOISOTOPIC_WEIGHT>
334.062343

> <PUBCHEM_TOTAL_CHARGE>
0

> <PUBCHEM_HEAVY_ATOM_COUNT>
23

> <PUBCHEM_ATOM_DEF_STEREO_COUNT>
0

> <PUBCHEM_ATOM_UDEF_STEREO_COUNT>
1

> <PUBCHEM_BOND_DEF_STEREO_COUNT>
0

> <PUBCHEM_BOND_UDEF_STEREO_COUNT>
0

> <PUBCHEM_ISOTOPIC_ATOM_COUNT>
0

> <PUBCHEM_COMPONENT_COUNT>
1

> <PUBCHEM_CACTVS_TAUTO_COUNT>
2

> <PUBCHEM_COORDINATE_TYPE>
1
5
255

> <PUBCHEM_BONDANNOTATIONS>
1  20  8
1  23  8
10  11  8
10  14  8
11  12  8
12  13  8
13  16  8
14  16  8
20  21  8
21  22  8
22  23  8
9  15  3

$$$$

