13984
  -OEChem-06241222412D

 62 65  0     1  0  0  0  0  0999 V2000
    9.6041    2.1361    0.0000 O   0  0  0  0  0  0  0  0  0  0  0  0
    3.2942   -1.7160    0.0000 O   0  0  0  0  0  0  0  0  0  0  0  0
   11.2505    1.5980    0.0000 O   0  0  0  0  0  0  0  0  0  0  0  0
    4.3014   -3.1251    0.0000 O   0  0  0  0  0  0  0  0  0  0  0  0
    6.6152   -0.1191    0.0000 C   0  0  3  0  0  0  0  0  0  0  0  0
    5.7052   -0.6260    0.0000 C   0  0  3  0  0  0  0  0  0  0  0  0
    7.4812   -0.6191    0.0000 C   0  0  3  0  0  0  0  0  0  0  0  0
    8.3472   -0.1191    0.0000 C   0  0  3  0  0  0  0  0  0  0  0  0
    8.3472    0.8809    0.0000 C   0  0  3  0  0  0  0  0  0  0  0  0
    5.6971   -1.6676    0.0000 C   0  0  3  0  0  0  0  0  0  0  0  0
    6.6152    0.8809    0.0000 C   0  0  0  0  0  0  0  0  0  0  0  0
    7.4973   -1.6606    0.0000 C   0  0  0  0  0  0  0  0  0  0  0  0
    7.4812    1.3809    0.0000 C   0  0  0  0  0  0  0  0  0  0  0  0
    4.7220   -0.3010    0.0000 C   0  0  0  0  0  0  0  0  0  0  0  0
    6.5992   -2.1884    0.0000 C   0  0  0  0  0  0  0  0  0  0  0  0
    9.2934   -0.4239    0.0000 C   0  0  0  0  0  0  0  0  0  0  0  0
    9.2934    1.1856    0.0000 C   0  0  2  0  0  0  0  0  0  0  0  0
    4.7091   -1.9774    0.0000 C   0  0  0  0  0  0  0  0  0  0  0  0
    4.1077   -1.1345    0.0000 C   0  0  1  0  0  0  0  0  0  0  0  0
    9.8771    0.3809    0.0000 C   0  0  0  0  0  0  0  0  0  0  0  0
    5.7129    0.3740    0.0000 C   0  0  0  0  0  0  0  0  0  0  0  0
    8.3472    1.8809    0.0000 C   0  0  0  0  0  0  0  0  0  0  0  0
    3.3032   -0.5405    0.0000 C   0  0  0  0  0  0  0  0  0  0  0  0
   10.5826    2.3423    0.0000 C   0  0  0  0  0  0  0  0  0  0  0  0
    3.3910   -2.7113    0.0000 C   0  0  0  0  0  0  0  0  0  0  0  0
    2.4988    0.0535    0.0000 C   0  0  0  0  0  0  0  0  0  0  0  0
   10.8933    3.2929    0.0000 C   0  0  0  0  0  0  0  0  0  0  0  0
    2.5775   -3.2929    0.0000 C   0  0  0  0  0  0  0  0  0  0  0  0
    7.1521    0.1909    0.0000 H   0  0  0  0  0  0  0  0  0  0  0  0
    8.0205   -0.9250    0.0000 H   0  0  0  0  0  0  0  0  0  0  0  0
    8.4128   -0.7357    0.0000 H   0  0  0  0  0  0  0  0  0  0  0  0
    5.6292   -2.2838    0.0000 H   0  0  0  0  0  0  0  0  0  0  0  0
    6.4031    1.4635    0.0000 H   0  0  0  0  0  0  0  0  0  0  0  0
    6.0046    0.7732    0.0000 H   0  0  0  0  0  0  0  0  0  0  0  0
    7.7153   -2.2410    0.0000 H   0  0  0  0  0  0  0  0  0  0  0  0
    8.1064   -1.5451    0.0000 H   0  0  0  0  0  0  0  0  0  0  0  0
    7.8797    1.8558    0.0000 H   0  0  0  0  0  0  0  0  0  0  0  0
    7.0827    1.8558    0.0000 H   0  0  0  0  0  0  0  0  0  0  0  0
    4.9774    0.2640    0.0000 H   0  0  0  0  0  0  0  0  0  0  0  0
    4.1871    0.0124    0.0000 H   0  0  0  0  0  0  0  0  0  0  0  0
    6.2019   -2.6644    0.0000 H   0  0  0  0  0  0  0  0  0  0  0  0
    7.0002   -2.6613    0.0000 H   0  0  0  0  0  0  0  0  0  0  0  0
    9.0424   -0.9908    0.0000 H   0  0  0  0  0  0  0  0  0  0  0  0
    9.8308   -0.7331    0.0000 H   0  0  0  0  0  0  0  0  0  0  0  0
    9.9059    1.2818    0.0000 H   0  0  0  0  0  0  0  0  0  0  0  0
    4.1694   -2.2825    0.0000 H   0  0  0  0  0  0  0  0  0  0  0  0
    4.9558   -2.5462    0.0000 H   0  0  0  0  0  0  0  0  0  0  0  0
   10.3379   -0.0339    0.0000 H   0  0  0  0  0  0  0  0  0  0  0  0
   10.3379    0.7956    0.0000 H   0  0  0  0  0  0  0  0  0  0  0  0
    6.3329    0.3692    0.0000 H   0  0  0  0  0  0  0  0  0  0  0  0
    5.7177    0.9940    0.0000 H   0  0  0  0  0  0  0  0  0  0  0  0
    5.0929    0.3788    0.0000 H   0  0  0  0  0  0  0  0  0  0  0  0
    8.9672    1.8809    0.0000 H   0  0  0  0  0  0  0  0  0  0  0  0
    8.3472    2.5009    0.0000 H   0  0  0  0  0  0  0  0  0  0  0  0
    7.7272    1.8809    0.0000 H   0  0  0  0  0  0  0  0  0  0  0  0
    2.0000    0.4218    0.0000 H   0  0  0  0  0  0  0  0  0  0  0  0
   11.4826    3.1002    0.0000 H   0  0  0  0  0  0  0  0  0  0  0  0
   11.0859    3.8822    0.0000 H   0  0  0  0  0  0  0  0  0  0  0  0
   10.3040    3.4855    0.0000 H   0  0  0  0  0  0  0  0  0  0  0  0
    2.2170   -2.7885    0.0000 H   0  0  0  0  0  0  0  0  0  0  0  0
    2.0731   -3.6534    0.0000 H   0  0  0  0  0  0  0  0  0  0  0  0
    2.9380   -3.7972    0.0000 H   0  0  0  0  0  0  0  0  0  0  0  0
  1 17  1  0  0  0  0
  1 24  1  0  0  0  0
  2 19  1  0  0  0  0
  2 25  1  0  0  0  0
  3 24  2  0  0  0  0
  4 25  2  0  0  0  0
  5  6  1  0  0  0  0
  5  7  1  0  0  0  0
  5 11  1  0  0  0  0
  5 29  1  0  0  0  0
  6 10  1  0  0  0  0
  6 14  1  0  0  0  0
  6 21  1  0  0  0  0
  7  8  1  0  0  0  0
  7 12  1  0  0  0  0
  7 30  1  0  0  0  0
  8  9  1  0  0  0  0
  8 16  1  0  0  0  0
  8 31  1  0  0  0  0
  9 13  1  0  0  0  0
  9 17  1  0  0  0  0
  9 22  1  0  0  0  0
 10 15  1  0  0  0  0
 10 18  1  0  0  0  0
 10 32  1  0  0  0  0
 11 13  1  0  0  0  0
 11 33  1  0  0  0  0
 11 34  1  0  0  0  0
 12 15  1  0  0  0  0
 12 35  1  0  0  0  0
 12 36  1  0  0  0  0
 13 37  1  0  0  0  0
 13 38  1  0  0  0  0
 14 19  1  0  0  0  0
 14 39  1  0  0  0  0
 14 40  1  0  0  0  0
 15 41  1  0  0  0  0
 15 42  1  0  0  0  0
 16 20  1  0  0  0  0
 16 43  1  0  0  0  0
 16 44  1  0  0  0  0
 17 20  1  0  0  0  0
 17 45  1  0  0  0  0
 18 19  1  0  0  0  0
 18 46  1  0  0  0  0
 18 47  1  0  0  0  0
 19 23  1  0  0  0  0
 20 48  1  0  0  0  0
 20 49  1  0  0  0  0
 21 50  1  0  0  0  0
 21 51  1  0  0  0  0
 21 52  1  0  0  0  0
 22 53  1  0  0  0  0
 22 54  1  0  0  0  0
 22 55  1  0  0  0  0
 23 26  3  0  0  0  0
 24 27  1  0  0  0  0
 25 28  1  0  0  0  0
 26 56  1  0  0  0  0
 27 57  1  0  0  0  0
 27 58  1  0  0  0  0
 27 59  1  0  0  0  0
 28 60  1  0  0  0  0
 28 61  1  0  0  0  0
 28 62  1  0  0  0  0
M  END
> <PUBCHEM_COMPOUND_CID>
13984

> <PUBCHEM_COMPOUND_CANONICALIZED>
1

> <PUBCHEM_CACTVS_COMPLEXITY>
734

> <PUBCHEM_CACTVS_HBOND_ACCEPTOR>
4

> <PUBCHEM_CACTVS_HBOND_DONOR>
0

> <PUBCHEM_CACTVS_ROTATABLE_BOND>
5

> <PUBCHEM_CACTVS_SUBSKEYS>
AAADcfB4OAAAAAAAAAAAAAAAAAAAAYMAAAAwYAAAAAAAAGDAAAAAGgAAAAAAD1SggAICCAAABABIGACQCAgAAAAAAAAAAAAAAAAAAAIAAAACAAAEAAAAAAGAwPAPgAAAAAAAAACAAAQAACAAAYAADAAAAA==

> <PUBCHEM_IUPAC_OPENEYE_NAME>
[(2R,6S)-2-acetoxy-2-ethynyl-3a,5a-dimethyl-3,3b,4,5,6,7,8,8a,8b,9,10,10a-dodecahydro-1H-indeno[5,4-e]inden-6-yl] acetate

> <PUBCHEM_IUPAC_CAS_NAME>
acetic acid [(2R,6S)-2-acetyloxy-2-ethynyl-3a,5a-dimethyl-3,3b,4,5,6,7,8,8a,8b,9,10,10a-dodecahydro-1H-indeno[5,4-e]inden-6-yl] ester

> <PUBCHEM_IUPAC_NAME>
[(2R,6S)-2-acetyloxy-2-ethynyl-3a,5a-dimethyl-3,3b,4,5,6,7,8,8a,8b,9,10,10a-dodecahydro-1H-indeno[5,4-e]inden-6-yl] acetate

> <PUBCHEM_IUPAC_SYSTEMATIC_NAME>
[(2R,6S)-2-acetyloxy-2-ethynyl-3a,5a-dimethyl-3,3b,4,5,6,7,8,8a,8b,9,10,10a-dodecahydro-1H-indeno[5,4-e]inden-6-yl] ethanoate

> <PUBCHEM_IUPAC_TRADITIONAL_NAME>
acetic acid [(2R,6S)-2-acetoxy-2-ethynyl-3a,5a-dimethyl-3,3b,4,5,6,7,8,8a,8b,9,10,10a-dodecahydro-1H-inden[5,4-e]inden-6-yl] ester

> <PUBCHEM_IUPAC_INCHI>
InChI=1S/C24H34O4/c1-6-24(28-16(3)26)13-17-7-8-18-19-9-10-21(27-15(2)25)22(19,4)12-11-20(18)23(17,5)14-24/h1,17-21H,7-14H2,2-5H3/t17?,18?,19?,20?,21-,22?,23?,24+/m0/s1

> <PUBCHEM_IUPAC_INCHIKEY>
DKNYQWQSJSUDBK-FADNVQFPSA-N

> <PUBCHEM_XLOGP3_AA>
4.9

> <PUBCHEM_EXACT_MASS>
386.24571

> <PUBCHEM_MOLECULAR_FORMULA>
C24H34O4

> <PUBCHEM_MOLECULAR_WEIGHT>
386.52436

> <PUBCHEM_OPENEYE_CAN_SMILES>
CC(=O)OC1CCC2C1(CCC3C2CCC4C3(CC(C4)(C#C)OC(=O)C)C)C

> <PUBCHEM_OPENEYE_ISO_SMILES>
CC(=O)O[C@H]1CCC2C1(CCC3C2CCC4C3(C[C@](C4)(C#C)OC(=O)C)C)C

> <PUBCHEM_CACTVS_TPSA>
52.6

> <PUBCHEM_MONOISOTOPIC_WEIGHT>
386.24571

> <PUBCHEM_TOTAL_CHARGE>
0

> <PUBCHEM_HEAVY_ATOM_COUNT>
28

> <PUBCHEM_ATOM_DEF_STEREO_COUNT>
2

> <PUBCHEM_ATOM_UDEF_STEREO_COUNT>
6

> <PUBCHEM_BOND_DEF_STEREO_COUNT>
0

> <PUBCHEM_BOND_UDEF_STEREO_COUNT>
0

> <PUBCHEM_ISOTOPIC_ATOM_COUNT>
0

> <PUBCHEM_COMPONENT_COUNT>
1

> <PUBCHEM_CACTVS_TAUTO_COUNT>
1

> <PUBCHEM_COORDINATE_TYPE>
1
5
255

> <PUBCHEM_BONDANNOTATIONS>
17  1  3
10  32  3
19  23  3
19  2  3
5  29  3
6  21  3
7  30  3
8  31  3
9  22  3

$$$$

