47205102
  -OEChem-06241222583D

 36 37  0     0  0  0  0  0  0999 V2000
   -2.7461   -1.8612    0.1344 S   0  0  0  0  0  0  0  0  0  0  0  0
    2.7863    2.0650    0.3963 O   0  0  0  0  0  0  0  0  0  0  0  0
   -0.5582   -0.2084    1.2222 O   0  0  0  0  0  0  0  0  0  0  0  0
    2.0984    0.7443   -1.3850 N   0  0  0  0  0  0  0  0  0  0  0  0
   -1.4454    1.8853    0.7631 N   0  0  0  0  0  0  0  0  0  0  0  0
    1.5205   -2.1550   -0.6814 N   0  0  0  0  0  0  0  0  0  0  0  0
    1.2484   -3.1228    0.2104 N   0  0  0  0  0  0  0  0  0  0  0  0
    0.2925    3.5504    0.2357 C   0  0  0  0  0  0  0  0  0  0  0  0
    0.8977    2.7816   -0.9405 C   0  0  0  0  0  0  0  0  0  0  0  0
   -0.3527    2.6547    1.2910 C   0  0  0  0  0  0  0  0  0  0  0  0
    2.0270    1.8451   -0.5435 C   0  0  0  0  0  0  0  0  0  0  0  0
    3.1003   -0.2860   -1.2398 C   0  0  0  0  0  0  0  0  0  0  0  0
    2.6238   -1.4148   -0.3722 C   0  0  0  0  0  0  0  0  0  0  0  0
   -1.4588    0.4951    0.7721 C   0  0  0  0  0  0  0  0  0  0  0  0
    3.1066   -1.9344    0.8040 C   0  0  0  0  0  0  0  0  0  0  0  0
   -2.6502   -0.1518    0.1645 C   0  0  0  0  0  0  0  0  0  0  0  0
    2.2207   -2.9832    1.1155 C   0  0  0  0  0  0  0  0  0  0  0  0
   -3.7536    0.4382   -0.4118 C   0  0  0  0  0  0  0  0  0  0  0  0
   -4.6903   -0.5260   -0.8841 C   0  0  0  0  0  0  0  0  0  0  0  0
   -4.2670   -1.8160   -0.6510 C   0  0  0  0  0  0  0  0  0  0  0  0
    1.0695    4.1563    0.7173 H   0  0  0  0  0  0  0  0  0  0  0  0
   -0.4578    4.2484   -0.1560 H   0  0  0  0  0  0  0  0  0  0  0  0
    0.1107    2.2258   -1.4631 H   0  0  0  0  0  0  0  0  0  0  0  0
    1.3146    3.4959   -1.6606 H   0  0  0  0  0  0  0  0  0  0  0  0
    0.3902    1.9987    1.7554 H   0  0  0  0  0  0  0  0  0  0  0  0
   -0.7695    3.2828    2.0860 H   0  0  0  0  0  0  0  0  0  0  0  0
    3.3326   -0.6618   -2.2420 H   0  0  0  0  0  0  0  0  0  0  0  0
    4.0135    0.1515   -0.8215 H   0  0  0  0  0  0  0  0  0  0  0  0
    1.4227    0.6417   -2.1365 H   0  0  0  0  0  0  0  0  0  0  0  0
   -2.2379    2.4022    0.3982 H   0  0  0  0  0  0  0  0  0  0  0  0
    3.9734   -1.6031    1.3569 H   0  0  0  0  0  0  0  0  0  0  0  0
    0.9077   -2.0547   -1.4811 H   0  0  0  0  0  0  0  0  0  0  0  0
    2.2430   -3.6511    1.9645 H   0  0  0  0  0  0  0  0  0  0  0  0
   -3.9063    1.5054   -0.5038 H   0  0  0  0  0  0  0  0  0  0  0  0
   -5.6268   -0.2858   -1.3705 H   0  0  0  0  0  0  0  0  0  0  0  0
   -4.7782   -2.7340   -0.9044 H   0  0  0  0  0  0  0  0  0  0  0  0
  1 16  1  0  0  0  0
  1 20  1  0  0  0  0
  2 11  2  0  0  0  0
  3 14  2  0  0  0  0
  4 11  1  0  0  0  0
  4 12  1  0  0  0  0
  4 29  1  0  0  0  0
  5 10  1  0  0  0  0
  5 14  1  0  0  0  0
  5 30  1  0  0  0  0
  6  7  1  0  0  0  0
  6 13  1  0  0  0  0
  6 32  1  0  0  0  0
  7 17  2  0  0  0  0
  8  9  1  0  0  0  0
  8 10  1  0  0  0  0
  8 21  1  0  0  0  0
  8 22  1  0  0  0  0
  9 11  1  0  0  0  0
  9 23  1  0  0  0  0
  9 24  1  0  0  0  0
 10 25  1  0  0  0  0
 10 26  1  0  0  0  0
 12 13  1  0  0  0  0
 12 27  1  0  0  0  0
 12 28  1  0  0  0  0
 13 15  2  0  0  0  0
 14 16  1  0  0  0  0
 15 17  1  0  0  0  0
 15 31  1  0  0  0  0
 16 18  2  0  0  0  0
 17 33  1  0  0  0  0
 18 19  1  0  0  0  0
 18 34  1  0  0  0  0
 19 20  2  0  0  0  0
 19 35  1  0  0  0  0
 20 36  1  0  0  0  0
M  END
> <PUBCHEM_COMPOUND_CID>
47205102

> <PUBCHEM_CONFORMER_RMSD>
1.2

> <PUBCHEM_CONFORMER_DIVERSEORDER>
1
65
20
44
86
32
77
70
27
47
46
75
36
15
40
80
8
85
78
16
10
63
74
14
49
81
34
87
5
9
2
3
19
11
71
62
37
41
66
48
45
7
33
82
23
52
55
76
64
50
13
25
73
26
29
68
53
51
31
88
28
61
6
4
24
69
84
54
17
57
43
83
58
59
35
79
12
18
60
67
72
30
38
39
22
21
42
56

> <PUBCHEM_MMFF94_PARTIAL_CHARGES>
27
1 -0.08
10 0.3
11 0.57
12 0.48
13 -0.33
14 0.71
15 -0.15
16 -0.05
17 0.14
18 -0.15
19 -0.15
2 -0.57
20 -0.11
29 0.37
3 -0.57
30 0.37
31 0.15
32 0.27
33 0.15
34 0.15
35 0.15
36 0.15
4 -0.73
5 -0.73
6 0.3
7 -0.71
9 0.06

> <PUBCHEM_EFFECTIVE_ROTOR_COUNT>
9

> <PUBCHEM_PHARMACOPHORE_FEATURES>
8
1 2 acceptor
1 3 acceptor
1 4 donor
1 5 donor
1 6 donor
1 7 acceptor
5 1 16 18 19 20 rings
5 6 7 13 15 17 rings

> <PUBCHEM_HEAVY_ATOM_COUNT>
20

> <PUBCHEM_ATOM_DEF_STEREO_COUNT>
0

> <PUBCHEM_ATOM_UDEF_STEREO_COUNT>
0

> <PUBCHEM_BOND_DEF_STEREO_COUNT>
0

> <PUBCHEM_BOND_UDEF_STEREO_COUNT>
0

> <PUBCHEM_ISOTOPIC_ATOM_COUNT>
0

> <PUBCHEM_COMPONENT_COUNT>
1

> <PUBCHEM_CACTVS_TAUTO_COUNT>
8

> <PUBCHEM_CONFORMER_ID>
02D04AEE00000001

> <PUBCHEM_MMFF94_ENERGY>
14.1824

> <PUBCHEM_FEATURE_SELFOVERLAP>
40.595

> <PUBCHEM_SHAPE_FINGERPRINT>
11370993 70 17980767038869984245
12553582 1 18266163088667151011
12788726 201 18044643429037209793
13083527 12 18340784722863128936
13931106 250 17551240991844755980
14251757 17 17629222647316967909
14251757 5 16821344564411842062
19026451 147 18410864252143228763
192875 21 18270684284855076818
21452121 99 17331390974817592564
23419403 2 17755906147586022761
23557571 272 17898016973314195082
23559900 14 18339089202739130549
23596394 208 18267882601032210039
238 59 18125711305767971187
257057 1 18268433623296973304
3323516 105 18266735771512382523
444735 86 16960157383986362439
463206 1 18191307083176264263
6338986 31 18339081617404912153
7471813 234 18339090396582257662
81228 2 17976253857329027011

> <PUBCHEM_SHAPE_MULTIPOLES>
383.78
7.14
4.39
1.23
6.87
1.07
0
-3.95
2.05
-2.99
-0.88
-0.39
0.15
-1.04

> <PUBCHEM_SHAPE_SELFOVERLAP>
782.368

> <PUBCHEM_SHAPE_VOLUME>
222.6

> <PUBCHEM_COORDINATE_TYPE>
2
5
10

$$$$

