17395635
  -OEChem-06241222513D

 62 64  0     1  0  0  0  0  0999 V2000
   -3.8171   -0.7451    1.3142 S   0  0  0  0  0  0  0  0  0  0  0  0
   -4.8221   -1.5610    1.9850 O   0  0  0  0  0  0  0  0  0  0  0  0
   -3.0000    0.1554    2.1185 O   0  0  0  0  0  0  0  0  0  0  0  0
   -4.4442   -3.5021    0.2747 O   0  0  0  0  0  0  0  0  0  0  0  0
    1.6961   -2.6287   -0.9821 O   0  0  0  0  0  0  0  0  0  0  0  0
    5.3051    1.1518    0.4082 O   0  0  0  0  0  0  0  0  0  0  0  0
    2.8635    0.1997    1.0280 O   0  0  0  0  0  0  0  0  0  0  0  0
   -4.5831    0.1652    0.0591 N   0  0  1  0  0  0  0  0  0  0  0  0
    0.9957   -0.4219   -0.9204 N   0  0  0  0  0  0  0  0  0  0  0  0
    2.2495    0.0595   -1.2078 N   0  0  0  0  0  0  0  0  0  0  0  0
   -3.8116    1.2776   -0.5514 C   0  0  0  0  0  0  0  0  0  0  0  0
   -2.7451   -1.8149    0.4391 C   0  0  0  0  0  0  0  0  0  0  0  0
   -4.4727    2.6111   -0.3425 C   0  0  0  0  0  0  0  0  0  0  0  0
   -3.1767   -3.0725    0.0175 C   0  0  0  0  0  0  0  0  0  0  0  0
   -5.3706   -0.5851   -0.9520 C   0  0  0  0  0  0  0  0  0  0  0  0
   -1.4433   -1.3959    0.1640 C   0  0  0  0  0  0  0  0  0  0  0  0
   -0.5732   -2.2344   -0.5330 C   0  0  0  0  0  0  0  0  0  0  0  0
   -2.3065   -3.9111   -0.6792 C   0  0  0  0  0  0  0  0  0  0  0  0
   -1.0049   -3.4920   -0.9546 C   0  0  0  0  0  0  0  0  0  0  0  0
   -4.1674    3.3716    0.7864 C   0  0  0  0  0  0  0  0  0  0  0  0
   -5.3912    3.0884   -1.2775 C   0  0  0  0  0  0  0  0  0  0  0  0
    0.8136   -1.7884   -0.8269 C   0  0  0  0  0  0  0  0  0  0  0  0
   -4.7809    4.6092    0.9803 C   0  0  0  0  0  0  0  0  0  0  0  0
   -6.0046    4.3261   -1.0835 C   0  0  0  0  0  0  0  0  0  0  0  0
   -5.6996    5.0865    0.0455 C   0  0  0  0  0  0  0  0  0  0  0  0
   -4.7952   -4.8018   -0.1950 C   0  0  0  0  0  0  0  0  0  0  0  0
    6.6555    1.0168    0.1878 C   0  0  0  0  0  0  0  0  0  0  0  0
    7.4164    0.1273    0.9464 C   0  0  0  0  0  0  0  0  0  0  0  0
    4.4433    0.8575   -0.6706 C   0  0  0  0  0  0  0  0  0  0  0  0
    3.1135    0.3414   -0.1662 C   0  0  0  0  0  0  0  0  0  0  0  0
    7.2636    1.7816   -0.8077 C   0  0  0  0  0  0  0  0  0  0  0  0
    8.7855    0.0029    0.7099 C   0  0  0  0  0  0  0  0  0  0  0  0
    6.7824   -0.6993    2.0157 C   0  0  0  0  0  0  0  0  0  0  0  0
    8.6326    1.6570   -1.0444 C   0  0  0  0  0  0  0  0  0  0  0  0
    9.3936    0.7677   -0.2856 C   0  0  0  0  0  0  0  0  0  0  0  0
   -2.7948    1.3218   -0.1451 H   0  0  0  0  0  0  0  0  0  0  0  0
   -3.6633    1.0989   -1.6246 H   0  0  0  0  0  0  0  0  0  0  0  0
   -6.0000   -1.3350   -0.4654 H   0  0  0  0  0  0  0  0  0  0  0  0
   -4.7172   -1.0694   -1.6826 H   0  0  0  0  0  0  0  0  0  0  0  0
   -6.0442    0.0963   -1.4803 H   0  0  0  0  0  0  0  0  0  0  0  0
   -1.1123   -0.4256    0.5208 H   0  0  0  0  0  0  0  0  0  0  0  0
   -2.5698   -4.8996   -1.0393 H   0  0  0  0  0  0  0  0  0  0  0  0
   -0.3425   -4.1569   -1.5028 H   0  0  0  0  0  0  0  0  0  0  0  0
   -3.4537    3.0120    1.5225 H   0  0  0  0  0  0  0  0  0  0  0  0
   -5.6362    2.5079   -2.1628 H   0  0  0  0  0  0  0  0  0  0  0  0
   -4.5433    5.2014    1.8593 H   0  0  0  0  0  0  0  0  0  0  0  0
   -6.7193    4.6981   -1.8117 H   0  0  0  0  0  0  0  0  0  0  0  0
   -6.1771    6.0502    0.1965 H   0  0  0  0  0  0  0  0  0  0  0  0
    0.2599    0.2727   -0.8570 H   0  0  0  0  0  0  0  0  0  0  0  0
   -5.8357   -4.9785    0.0973 H   0  0  0  0  0  0  0  0  0  0  0  0
   -4.1948   -5.5817    0.2856 H   0  0  0  0  0  0  0  0  0  0  0  0
   -4.7599   -4.8597   -1.2883 H   0  0  0  0  0  0  0  0  0  0  0  0
    2.4784    0.1893   -2.1876 H   0  0  0  0  0  0  0  0  0  0  0  0
    4.8747    0.0907   -1.3275 H   0  0  0  0  0  0  0  0  0  0  0  0
    4.2659    1.7705   -1.2502 H   0  0  0  0  0  0  0  0  0  0  0  0
    6.6852    2.4842   -1.4014 H   0  0  0  0  0  0  0  0  0  0  0  0
    9.3927   -0.6852    1.2920 H   0  0  0  0  0  0  0  0  0  0  0  0
    7.5109   -1.3393    2.5249 H   0  0  0  0  0  0  0  0  0  0  0  0
    6.0139   -1.3508    1.5866 H   0  0  0  0  0  0  0  0  0  0  0  0
    6.3241   -0.0549    2.7732 H   0  0  0  0  0  0  0  0  0  0  0  0
    9.1065    2.2537   -1.8183 H   0  0  0  0  0  0  0  0  0  0  0  0
   10.4596    0.6712   -0.4697 H   0  0  0  0  0  0  0  0  0  0  0  0
  1  2  2  0  0  0  0
  1  3  2  0  0  0  0
  1  8  1  0  0  0  0
  1 12  1  0  0  0  0
  4 14  1  0  0  0  0
  4 26  1  0  0  0  0
  5 22  2  0  0  0  0
  6 27  1  0  0  0  0
  6 29  1  0  0  0  0
  7 30  2  0  0  0  0
  8 11  1  0  0  0  0
  8 15  1  0  0  0  0
  9 10  1  0  0  0  0
  9 22  1  0  0  0  0
  9 49  1  0  0  0  0
 10 30  1  0  0  0  0
 10 53  1  0  0  0  0
 11 13  1  0  0  0  0
 11 36  1  0  0  0  0
 11 37  1  0  0  0  0
 12 14  2  0  0  0  0
 12 16  1  0  0  0  0
 13 20  2  0  0  0  0
 13 21  1  0  0  0  0
 14 18  1  0  0  0  0
 15 38  1  0  0  0  0
 15 39  1  0  0  0  0
 15 40  1  0  0  0  0
 16 17  2  0  0  0  0
 16 41  1  0  0  0  0
 17 19  1  0  0  0  0
 17 22  1  0  0  0  0
 18 19  2  0  0  0  0
 18 42  1  0  0  0  0
 19 43  1  0  0  0  0
 20 23  1  0  0  0  0
 20 44  1  0  0  0  0
 21 24  2  0  0  0  0
 21 45  1  0  0  0  0
 23 25  2  0  0  0  0
 23 46  1  0  0  0  0
 24 25  1  0  0  0  0
 24 47  1  0  0  0  0
 25 48  1  0  0  0  0
 26 50  1  0  0  0  0
 26 51  1  0  0  0  0
 26 52  1  0  0  0  0
 27 28  1  0  0  0  0
 27 31  2  0  0  0  0
 28 32  2  0  0  0  0
 28 33  1  0  0  0  0
 29 30  1  0  0  0  0
 29 54  1  0  0  0  0
 29 55  1  0  0  0  0
 31 34  1  0  0  0  0
 31 56  1  0  0  0  0
 32 35  1  0  0  0  0
 32 57  1  0  0  0  0
 33 58  1  0  0  0  0
 33 59  1  0  0  0  0
 33 60  1  0  0  0  0
 34 35  2  0  0  0  0
 34 61  1  0  0  0  0
 35 62  1  0  0  0  0
M  END
> <PUBCHEM_COMPOUND_CID>
17395635

> <PUBCHEM_CONFORMER_RMSD>
1.4

> <PUBCHEM_CONFORMER_DIVERSEORDER>
1
41
42
36
7
51
45
81
26
87
12
100
53
95
49
46
58
91
90
50
19
6
102
66
92
20
37
44
61
55
89
69
38
88
28
43
67
80
10
8
40
94
101
62
4
84
85
5
54
48
73
34
57
47
77
98
39
71
79
65
11
3
64
86
60
15
82
24
63
75
83
25
35
18
76
14
59
9
70
68
13
56
17
27
23
97
21
78
33
93
30
29
16
22
74
72
96
2
99
32
52
31

> <PUBCHEM_MMFF94_PARTIAL_CHARGES>
49
1 1.45
10 -0.43
11 0.5
12 -0.01
13 -0.14
14 0.08
15 0.36
16 -0.15
17 0.09
18 -0.15
19 -0.15
2 -0.65
20 -0.15
21 -0.15
22 0.54
23 -0.15
24 -0.15
25 -0.15
26 0.28
27 0.08
28 -0.14
29 0.34
3 -0.65
30 0.57
31 -0.15
32 -0.15
33 0.14
34 -0.15
35 -0.15
4 -0.36
41 0.15
42 0.15
43 0.15
44 0.15
45 0.15
46 0.15
47 0.15
48 0.15
49 0.37
5 -0.57
53 0.37
56 0.15
57 0.15
6 -0.36
61 0.15
62 0.15
7 -0.57
8 -0.85
9 -0.43

> <PUBCHEM_EFFECTIVE_ROTOR_COUNT>
12

> <PUBCHEM_PHARMACOPHORE_FEATURES>
11
1 10 donor
1 2 acceptor
1 3 acceptor
1 4 acceptor
1 5 acceptor
1 6 acceptor
1 7 acceptor
1 9 donor
6 12 14 16 17 18 19 rings
6 13 20 21 23 24 25 rings
6 27 28 31 32 34 35 rings

> <PUBCHEM_HEAVY_ATOM_COUNT>
35

> <PUBCHEM_ATOM_DEF_STEREO_COUNT>
0

> <PUBCHEM_ATOM_UDEF_STEREO_COUNT>
0

> <PUBCHEM_BOND_DEF_STEREO_COUNT>
0

> <PUBCHEM_BOND_UDEF_STEREO_COUNT>
0

> <PUBCHEM_ISOTOPIC_ATOM_COUNT>
0

> <PUBCHEM_COMPONENT_COUNT>
1

> <PUBCHEM_CACTVS_TAUTO_COUNT>
4

> <PUBCHEM_CONFORMER_ID>
01096FB300000001

> <PUBCHEM_MMFF94_ENERGY>
100.3772

> <PUBCHEM_FEATURE_SELFOVERLAP>
57.394

> <PUBCHEM_SHAPE_FINGERPRINT>
100830 39 18409166571913911670
10299344 5 18271244899416985590
10838868 160 18189332532883229473
10930396 42 18130211685245926643
11135609 187 18196095671934830869
11135609 201 18262231253194573473
11146346 60 18411710877267507944
11374522 101 18131634491657531716
12522641 68 18114471162117756359
12717326 135 18339358673530429540
15152005 290 18338800130097843989
15183329 4 18337674118927688986
15326921 28 18335709355160499587
15328684 2 18201169797420195248
15419008 42 17968084374713947158
15419008 91 17895205351444141696
15439362 3 18121218937701587063
15803439 3 16660937671933199957
19053607 189 18192445279511782889
19246450 95 18336841865924604090
19304671 126 17388810079171095629
21033648 144 18114170956730995567
21033648 29 18268699666524709679
21927370 108 18049998901648973243
23522609 53 17846202334238833364
4353968 344 18187936031886146623
437795 83 18334581252426596933
48014 12 18409720751491841544
4938544 92 18411420600747155756
5372103 7 17630345236484930005
6201320 215 18409168796839151663
9831232 110 18261099787474781014
9896288 288 18342454807537341707

> <PUBCHEM_SHAPE_MULTIPOLES>
673.97
25.69
6.55
1.44
68.42
1.47
0.52
21.34
1.42
-20.07
-0.94
-0.02
0.06
-0.28

> <PUBCHEM_SHAPE_SELFOVERLAP>
1417.096

> <PUBCHEM_SHAPE_VOLUME>
379.3

> <PUBCHEM_COORDINATE_TYPE>
2
5
10

$$$$

