12065
  -OEChem-06261206282D

 16 16  0     0  0  0  0  0  0999 V2000
    5.4641   -1.4050    0.0000 I   0  0  0  0  0  0  0  0  0  0  0  0
    2.0000   -1.4050    0.0000 I   0  0  0  0  0  0  0  0  0  0  0  0
    3.7320   -2.4050    0.0000 O   0  0  0  0  0  0  0  0  0  0  0  0
    4.5981    2.0950    0.0000 O   0  0  0  0  0  0  0  0  0  0  0  0
    2.8660    2.0950    0.0000 O   0  0  0  0  0  0  0  0  0  0  0  0
    3.7320    0.5950    0.0000 C   0  0  0  0  0  0  0  0  0  0  0  0
    2.8660    0.0950    0.0000 C   0  0  0  0  0  0  0  0  0  0  0  0
    4.5981    0.0950    0.0000 C   0  0  0  0  0  0  0  0  0  0  0  0
    3.7320   -1.4050    0.0000 C   0  0  0  0  0  0  0  0  0  0  0  0
    4.5981   -0.9050    0.0000 C   0  0  0  0  0  0  0  0  0  0  0  0
    2.8660   -0.9050    0.0000 C   0  0  0  0  0  0  0  0  0  0  0  0
    3.7320    1.5950    0.0000 C   0  0  0  0  0  0  0  0  0  0  0  0
    2.3291    0.4050    0.0000 H   0  0  0  0  0  0  0  0  0  0  0  0
    5.1350    0.4050    0.0000 H   0  0  0  0  0  0  0  0  0  0  0  0
    3.1951   -2.7150    0.0000 H   0  0  0  0  0  0  0  0  0  0  0  0
    4.5981    2.7150    0.0000 H   0  0  0  0  0  0  0  0  0  0  0  0
  1 10  1  0  0  0  0
  2 11  1  0  0  0  0
  3  9  1  0  0  0  0
  3 15  1  0  0  0  0
  4 12  1  0  0  0  0
  4 16  1  0  0  0  0
  5 12  2  0  0  0  0
  6  7  2  0  0  0  0
  6  8  1  0  0  0  0
  6 12  1  0  0  0  0
  7 11  1  0  0  0  0
  7 13  1  0  0  0  0
  8 10  2  0  0  0  0
  8 14  1  0  0  0  0
  9 10  1  0  0  0  0
  9 11  2  0  0  0  0
M  END
> <PUBCHEM_COMPOUND_CID>
12065

> <PUBCHEM_COMPOUND_CANONICALIZED>
1

> <PUBCHEM_CACTVS_COMPLEXITY>
174

> <PUBCHEM_CACTVS_HBOND_ACCEPTOR>
3

> <PUBCHEM_CACTVS_HBOND_DONOR>
2

> <PUBCHEM_CACTVS_ROTATABLE_BOND>
1

> <PUBCHEM_CACTVS_SUBSKEYS>
AAADcYBgMAAAAwAAAAAAAAAAAAAAAAAAAAAwAAAAAAAAAAABAAAAGgAgCAAADASCmAAwDoAAAgCIAiDSCAACAAAkIAAAiAEECMgIJjKCFRKAcQAkwBEImYeI7CTOIAAAAAAAAABAAAAAAAAAAAAAAAAAAA==

> <PUBCHEM_IUPAC_OPENEYE_NAME>
4-hydroxy-3,5-diiodo-benzoic acid

> <PUBCHEM_IUPAC_CAS_NAME>
4-hydroxy-3,5-diiodobenzoic acid

> <PUBCHEM_IUPAC_NAME>
4-hydroxy-3,5-diiodobenzoic acid

> <PUBCHEM_IUPAC_SYSTEMATIC_NAME>
3,5-bis(iodanyl)-4-oxidanyl-benzoic acid

> <PUBCHEM_IUPAC_TRADITIONAL_NAME>
4-hydroxy-3,5-diiodo-benzoic acid

> <PUBCHEM_IUPAC_INCHI>
InChI=1S/C7H4I2O3/c8-4-1-3(7(11)12)2-5(9)6(4)10/h1-2,10H,(H,11,12)

> <PUBCHEM_IUPAC_INCHIKEY>
XREKTVACBXQCSB-UHFFFAOYSA-N

> <PUBCHEM_XLOGP3>
1.8

> <PUBCHEM_EXACT_MASS>
389.82499

> <PUBCHEM_MOLECULAR_FORMULA>
C7H4I2O3

> <PUBCHEM_MOLECULAR_WEIGHT>
389.9138

> <PUBCHEM_OPENEYE_CAN_SMILES>
C1=C(C=C(C(=C1I)O)I)C(=O)O

> <PUBCHEM_OPENEYE_ISO_SMILES>
C1=C(C=C(C(=C1I)O)I)C(=O)O

> <PUBCHEM_CACTVS_TPSA>
57.5

> <PUBCHEM_MONOISOTOPIC_WEIGHT>
389.82499

> <PUBCHEM_TOTAL_CHARGE>
0

> <PUBCHEM_HEAVY_ATOM_COUNT>
12

> <PUBCHEM_ATOM_DEF_STEREO_COUNT>
0

> <PUBCHEM_ATOM_UDEF_STEREO_COUNT>
0

> <PUBCHEM_BOND_DEF_STEREO_COUNT>
0

> <PUBCHEM_BOND_UDEF_STEREO_COUNT>
0

> <PUBCHEM_ISOTOPIC_ATOM_COUNT>
0

> <PUBCHEM_COMPONENT_COUNT>
1

> <PUBCHEM_CACTVS_TAUTO_COUNT>
4

> <PUBCHEM_COORDINATE_TYPE>
1
5
255

> <PUBCHEM_BONDANNOTATIONS>
6  7  8
6  8  8
7  11  8
8  10  8
9  10  8
9  11  8

$$$$

