11893
  -OEChem-06261206152D

 29 29  0     1  0  0  0  0  0999 V2000
    3.8313   -1.2214    0.0000 O   0  0  0  0  0  0  0  0  0  0  0  0
    6.6791    0.8477    0.0000 O   0  0  0  0  0  0  0  0  0  0  0  0
    5.6001   -2.1349    0.0000 O   0  0  0  0  0  0  0  0  0  0  0  0
    4.9190    1.1265    0.0000 N   0  0  0  0  0  0  0  0  0  0  0  0
    3.1590    0.8477    0.0000 C   0  0  3  0  0  0  0  0  0  0  0  0
    4.1100    0.5387    0.0000 C   0  0  3  0  0  0  0  0  0  0  0  0
    2.9511    1.8259    0.0000 C   0  0  0  0  0  0  0  0  0  0  0  0
    4.4190   -0.4123    0.0000 C   0  0  0  0  0  0  0  0  0  0  0  0
    2.4158    0.1786    0.0000 C   0  0  0  0  0  0  0  0  0  0  0  0
    5.4190   -0.4123    0.0000 C   0  0  0  0  0  0  0  0  0  0  0  0
    5.7281    0.5387    0.0000 C   0  0  0  0  0  0  0  0  0  0  0  0
    2.0000    2.1349    0.0000 C   0  0  0  0  0  0  0  0  0  0  0  0
    6.0068   -1.2214    0.0000 C   0  0  0  0  0  0  0  0  0  0  0  0
    7.0014   -1.1168    0.0000 C   0  0  0  0  0  0  0  0  0  0  0  0
    2.3506    1.1104    0.0000 H   0  0  0  0  0  0  0  0  0  0  0  0
    3.9771    1.3782    0.0000 H   0  0  0  0  0  0  0  0  0  0  0  0
    3.5707    1.8475    0.0000 H   0  0  0  0  0  0  0  0  0  0  0  0
    3.0373    2.4398    0.0000 H   0  0  0  0  0  0  0  0  0  0  0  0
    4.9190    1.7465    0.0000 H   0  0  0  0  0  0  0  0  0  0  0  0
    2.0010    0.6394    0.0000 H   0  0  0  0  0  0  0  0  0  0  0  0
    1.9551   -0.2363    0.0000 H   0  0  0  0  0  0  0  0  0  0  0  0
    2.8307   -0.2821    0.0000 H   0  0  0  0  0  0  0  0  0  0  0  0
    2.1916    2.7246    0.0000 H   0  0  0  0  0  0  0  0  0  0  0  0
    1.4103    2.3265    0.0000 H   0  0  0  0  0  0  0  0  0  0  0  0
    1.8084    1.5452    0.0000 H   0  0  0  0  0  0  0  0  0  0  0  0
    6.8080    1.4542    0.0000 H   0  0  0  0  0  0  0  0  0  0  0  0
    7.0662   -1.7334    0.0000 H   0  0  0  0  0  0  0  0  0  0  0  0
    7.6180   -1.0520    0.0000 H   0  0  0  0  0  0  0  0  0  0  0  0
    6.9365   -0.5002    0.0000 H   0  0  0  0  0  0  0  0  0  0  0  0
  1  8  2  0  0  0  0
  2 11  1  0  0  0  0
  2 26  1  0  0  0  0
  3 13  2  0  0  0  0
  4  6  1  0  0  0  0
  4 11  1  0  0  0  0
  4 19  1  0  0  0  0
  5  6  1  0  0  0  0
  5  7  1  0  0  0  0
  5  9  1  0  0  0  0
  5 15  1  0  0  0  0
  6  8  1  0  0  0  0
  6 16  1  0  0  0  0
  7 12  1  0  0  0  0
  7 17  1  0  0  0  0
  7 18  1  0  0  0  0
  8 10  1  0  0  0  0
  9 20  1  0  0  0  0
  9 21  1  0  0  0  0
  9 22  1  0  0  0  0
 10 11  2  0  0  0  0
 10 13  1  0  0  0  0
 12 23  1  0  0  0  0
 12 24  1  0  0  0  0
 12 25  1  0  0  0  0
 13 14  1  0  0  0  0
 14 27  1  0  0  0  0
 14 28  1  0  0  0  0
 14 29  1  0  0  0  0
M  END
> <PUBCHEM_COMPOUND_CID>
11893

> <PUBCHEM_COMPOUND_CANONICALIZED>
1

> <PUBCHEM_CACTVS_COMPLEXITY>
307

> <PUBCHEM_CACTVS_HBOND_ACCEPTOR>
4

> <PUBCHEM_CACTVS_HBOND_DONOR>
2

> <PUBCHEM_CACTVS_ROTATABLE_BOND>
3

> <PUBCHEM_CACTVS_SUBSKEYS>
AAADccByMAAAAAAAAAAAAAAAAAAAAQAAAAAAAAAAAAAAAAAAAAAAHgAQCAAADSzBgAQCAALAAgCIAoBQQAAAAAAgIAAAAIGIAEkAABIIgCAEAAAAkAAAAEEciMCOAAAAAAAAAAAAAAAAAAAAAAAAAAAAAA==

> <PUBCHEM_IUPAC_OPENEYE_NAME>
4-acetyl-5-hydroxy-2-sec-butyl-1,2-dihydropyrrol-3-one

> <PUBCHEM_IUPAC_CAS_NAME>
4-acetyl-2-butan-2-yl-5-hydroxy-1,2-dihydropyrrol-3-one

> <PUBCHEM_IUPAC_NAME>
4-acetyl-2-butan-2-yl-5-hydroxy-1,2-dihydropyrrol-3-one

> <PUBCHEM_IUPAC_SYSTEMATIC_NAME>
2-butan-2-yl-4-ethanoyl-5-oxidanyl-1,2-dihydropyrrol-3-one

> <PUBCHEM_IUPAC_TRADITIONAL_NAME>
4-acetyl-5-hydroxy-2-sec-butyl-2-pyrrolin-3-one

> <PUBCHEM_IUPAC_INCHI>
InChI=1S/C10H15NO3/c1-4-5(2)8-9(13)7(6(3)12)10(14)11-8/h5,8,11,14H,4H2,1-3H3

> <PUBCHEM_IUPAC_INCHIKEY>
MUEHIVGVGRFSSL-UHFFFAOYSA-N

> <PUBCHEM_XLOGP3_AA>
2.1

> <PUBCHEM_EXACT_MASS>
197.105193

> <PUBCHEM_MOLECULAR_FORMULA>
C10H15NO3

> <PUBCHEM_MOLECULAR_WEIGHT>
197.231

> <PUBCHEM_OPENEYE_CAN_SMILES>
CCC(C)C1C(=O)C(=C(N1)O)C(=O)C

> <PUBCHEM_OPENEYE_ISO_SMILES>
CCC(C)C1C(=O)C(=C(N1)O)C(=O)C

> <PUBCHEM_CACTVS_TPSA>
66.4

> <PUBCHEM_MONOISOTOPIC_WEIGHT>
197.105193

> <PUBCHEM_TOTAL_CHARGE>
0

> <PUBCHEM_HEAVY_ATOM_COUNT>
14

> <PUBCHEM_ATOM_DEF_STEREO_COUNT>
0

> <PUBCHEM_ATOM_UDEF_STEREO_COUNT>
2

> <PUBCHEM_BOND_DEF_STEREO_COUNT>
0

> <PUBCHEM_BOND_UDEF_STEREO_COUNT>
0

> <PUBCHEM_ISOTOPIC_ATOM_COUNT>
0

> <PUBCHEM_COMPONENT_COUNT>
1

> <PUBCHEM_CACTVS_TAUTO_COUNT>
20

> <PUBCHEM_COORDINATE_TYPE>
1
5
255

> <PUBCHEM_BONDANNOTATIONS>
5  15  3
6  16  3

$$$$

