582758
  -OEChem-06241222432D

 31 33  0     0  0  0  0  0  0999 V2000
    5.0326    2.3732    0.0000 O   0  0  0  0  0  0  0  0  0  0  0  0
    5.8367    0.6341    0.0000 N   0  0  0  0  0  0  0  0  0  0  0  0
    3.5618   -0.8443    0.0000 C   0  0  0  0  0  0  0  0  0  0  0  0
    4.5277   -0.3170    0.0000 C   0  0  0  0  0  0  0  0  0  0  0  0
    2.5089   -0.5242    0.0000 C   0  0  0  0  0  0  0  0  0  0  0  0
    2.0000    0.4515    0.0000 C   0  0  0  0  0  0  0  0  0  0  0  0
    2.3401    1.4981    0.0000 C   0  0  0  0  0  0  0  0  0  0  0  0
    4.8367    0.6341    0.0000 C   0  0  0  0  0  0  0  0  0  0  0  0
    3.3253    1.9884    0.0000 C   0  0  0  0  0  0  0  0  0  0  0  0
    5.3367   -0.9048    0.0000 C   0  0  0  0  0  0  0  0  0  0  0  0
    4.3653    1.6285    0.0000 C   0  0  0  0  0  0  0  0  0  0  0  0
    6.1457   -0.3170    0.0000 C   0  0  0  0  0  0  0  0  0  0  0  0
    5.4296   -1.9422    0.0000 C   0  0  0  0  0  0  0  0  0  0  0  0
    7.1037   -0.7259    0.0000 C   0  0  0  0  0  0  0  0  0  0  0  0
    6.3779   -2.3732    0.0000 C   0  0  0  0  0  0  0  0  0  0  0  0
    7.2206   -1.7610    0.0000 C   0  0  0  0  0  0  0  0  0  0  0  0
    3.2357   -1.3717    0.0000 H   0  0  0  0  0  0  0  0  0  0  0  0
    3.9882   -1.2944    0.0000 H   0  0  0  0  0  0  0  0  0  0  0  0
    1.9041   -0.6608    0.0000 H   0  0  0  0  0  0  0  0  0  0  0  0
    2.4863   -1.1438    0.0000 H   0  0  0  0  0  0  0  0  0  0  0  0
    1.4790    0.7875    0.0000 H   0  0  0  0  0  0  0  0  0  0  0  0
    1.5419    0.0337    0.0000 H   0  0  0  0  0  0  0  0  0  0  0  0
    2.2150    2.1054    0.0000 H   0  0  0  0  0  0  0  0  0  0  0  0
    1.7210    1.5325    0.0000 H   0  0  0  0  0  0  0  0  0  0  0  0
    3.6712    2.5029    0.0000 H   0  0  0  0  0  0  0  0  0  0  0  0
    2.9163    2.4543    0.0000 H   0  0  0  0  0  0  0  0  0  0  0  0
    6.2011    1.1357    0.0000 H   0  0  0  0  0  0  0  0  0  0  0  0
    4.9238   -2.3008    0.0000 H   0  0  0  0  0  0  0  0  0  0  0  0
    7.6010   -0.3557    0.0000 H   0  0  0  0  0  0  0  0  0  0  0  0
    6.4403   -2.9901    0.0000 H   0  0  0  0  0  0  0  0  0  0  0  0
    7.7879   -2.0110    0.0000 H   0  0  0  0  0  0  0  0  0  0  0  0
  1 11  2  0  0  0  0
  2  8  1  0  0  0  0
  2 12  1  0  0  0  0
  2 27  1  0  0  0  0
  3  4  1  0  0  0  0
  3  5  1  0  0  0  0
  3 17  1  0  0  0  0
  3 18  1  0  0  0  0
  4  8  2  0  0  0  0
  4 10  1  0  0  0  0
  5  6  1  0  0  0  0
  5 19  1  0  0  0  0
  5 20  1  0  0  0  0
  6  7  1  0  0  0  0
  6 21  1  0  0  0  0
  6 22  1  0  0  0  0
  7  9  1  0  0  0  0
  7 23  1  0  0  0  0
  7 24  1  0  0  0  0
  8 11  1  0  0  0  0
  9 11  1  0  0  0  0
  9 25  1  0  0  0  0
  9 26  1  0  0  0  0
 10 12  1  0  0  0  0
 10 13  2  0  0  0  0
 12 14  2  0  0  0  0
 13 15  1  0  0  0  0
 13 28  1  0  0  0  0
 14 16  1  0  0  0  0
 14 29  1  0  0  0  0
 15 16  2  0  0  0  0
 15 30  1  0  0  0  0
 16 31  1  0  0  0  0
M  END
> <PUBCHEM_COMPOUND_CID>
582758

> <PUBCHEM_COMPOUND_CANONICALIZED>
1

> <PUBCHEM_CACTVS_COMPLEXITY>
276

> <PUBCHEM_CACTVS_HBOND_ACCEPTOR>
1

> <PUBCHEM_CACTVS_HBOND_DONOR>
1

> <PUBCHEM_CACTVS_ROTATABLE_BOND>
0

> <PUBCHEM_CACTVS_SUBSKEYS>
AAADccByIAAAAAAAAAAAAAAAAAAAAWAAAAAwAAAAAAAYAFgB8AAAHgAQAAAADAyBngAwwPLJkACoA6RyRACCgCAnAiAImSGwZNgIIPLAlbGEIQhgkADIyQcYicCegAAAAAACAAAAAAAAAAQAAAAAAAAAAA==

> <PUBCHEM_IUPAC_OPENEYE_NAME>
5,7,8,9,10,11-hexahydrocycloocta[b]indol-6-one

> <PUBCHEM_IUPAC_CAS_NAME>
5,7,8,9,10,11-hexahydrocycloocta[b]indol-6-one

> <PUBCHEM_IUPAC_NAME>
5,7,8,9,10,11-hexahydrocycloocta[b]indol-6-one

> <PUBCHEM_IUPAC_SYSTEMATIC_NAME>
5,7,8,9,10,11-hexahydrocycloocta[b]indol-6-one

> <PUBCHEM_IUPAC_TRADITIONAL_NAME>
5,7,8,9,10,11-hexahydrocyclooct[b]indol-6-one

> <PUBCHEM_IUPAC_INCHI>
InChI=1S/C14H15NO/c16-13-9-3-1-2-7-11-10-6-4-5-8-12(10)15-14(11)13/h4-6,8,15H,1-3,7,9H2

> <PUBCHEM_IUPAC_INCHIKEY>
FGHTXXQTPYFHNW-UHFFFAOYSA-N

> <PUBCHEM_XLOGP3_AA>
3.6

> <PUBCHEM_EXACT_MASS>
213.115364

> <PUBCHEM_MOLECULAR_FORMULA>
C14H15NO

> <PUBCHEM_MOLECULAR_WEIGHT>
213.275

> <PUBCHEM_OPENEYE_CAN_SMILES>
C1CCC2=C(C(=O)CC1)NC3=CC=CC=C23

> <PUBCHEM_OPENEYE_ISO_SMILES>
C1CCC2=C(C(=O)CC1)NC3=CC=CC=C23

> <PUBCHEM_CACTVS_TPSA>
32.9

> <PUBCHEM_MONOISOTOPIC_WEIGHT>
213.115364

> <PUBCHEM_TOTAL_CHARGE>
0

> <PUBCHEM_HEAVY_ATOM_COUNT>
16

> <PUBCHEM_ATOM_DEF_STEREO_COUNT>
0

> <PUBCHEM_ATOM_UDEF_STEREO_COUNT>
0

> <PUBCHEM_BOND_DEF_STEREO_COUNT>
0

> <PUBCHEM_BOND_UDEF_STEREO_COUNT>
0

> <PUBCHEM_ISOTOPIC_ATOM_COUNT>
0

> <PUBCHEM_COMPONENT_COUNT>
1

> <PUBCHEM_CACTVS_TAUTO_COUNT>
29

> <PUBCHEM_COORDINATE_TYPE>
1
5
255

> <PUBCHEM_BONDANNOTATIONS>
10  12  8
10  13  8
12  14  8
13  15  8
14  16  8
15  16  8
2  12  8
2  8  8
4  10  8
4  8  8

$$$$

