9698
  -OEChem-06261203573D

 84 85  0     1  0  0  0  0  0999 V2000
   -3.7336   -0.9732   -0.3231 O   0  0  0  0  0  0  0  0  0  0  0  0
    1.4083   -2.9851   -0.4777 O   0  0  0  0  0  0  0  0  0  0  0  0
   -4.2610   -0.4170    0.8961 C   0  0  2  0  0  0  0  0  0  0  0  0
   -3.8351    1.0554    0.9971 C   0  0  0  0  0  0  0  0  0  0  0  0
   -3.8448   -1.2413    2.1252 C   0  0  0  0  0  0  0  0  0  0  0  0
   -4.2962    1.8530   -0.2236 C   0  0  0  0  0  0  0  0  0  0  0  0
   -1.5375    2.7398   -1.2363 C   0  0  2  0  0  0  0  0  0  0  0  0
   -2.3305   -1.3488    2.2351 C   0  0  0  0  0  0  0  0  0  0  0  0
   -3.8314    3.3136   -0.2125 C   0  0  0  0  0  0  0  0  0  0  0  0
   -2.3092    3.4657   -0.1097 C   0  0  0  0  0  0  0  0  0  0  0  0
   -0.0119    2.7855   -1.0043 C   0  0  0  0  0  0  0  0  0  0  0  0
   -5.7893   -0.4740    0.7563 C   0  0  0  0  0  0  0  0  0  0  0  0
   -1.7377   -1.6824    0.8984 C   0  0  0  0  0  0  0  0  0  0  0  0
   -2.4579   -1.4711   -0.2831 C   0  0  0  0  0  0  0  0  0  0  0  0
    0.5277    1.8420    0.0795 C   0  0  0  0  0  0  0  0  0  0  0  0
    2.5969    0.9499    1.3913 C   0  0  1  0  0  0  0  0  0  0  0  0
    2.0313    1.9551    0.3652 C   0  0  0  0  0  0  0  0  0  0  0  0
    4.1322    1.0693    1.5193 C   0  0  0  0  0  0  0  0  0  0  0  0
   -0.4312   -2.1842    0.8217 C   0  0  0  0  0  0  0  0  0  0  0  0
   -1.9175    3.3674   -2.5831 C   0  0  0  0  0  0  0  0  0  0  0  0
   -1.8897   -1.7914   -1.5194 C   0  0  0  0  0  0  0  0  0  0  0  0
    4.8951    0.4967    0.3185 C   0  0  0  0  0  0  0  0  0  0  0  0
   -0.5938   -2.3012   -1.5841 C   0  0  0  0  0  0  0  0  0  0  0  0
    1.9658    1.1451    2.7748 C   0  0  0  0  0  0  0  0  0  0  0  0
    0.1369   -2.4940   -0.4142 C   0  0  0  0  0  0  0  0  0  0  0  0
    6.4050    0.7155    0.4679 C   0  0  0  0  0  0  0  0  0  0  0  0
    7.2270    0.1375   -0.6993 C   0  0  0  0  0  0  0  0  0  0  0  0
    0.3817   -2.3909    2.0626 C   0  0  0  0  0  0  0  0  0  0  0  0
   -2.6693   -1.5808   -2.7802 C   0  0  0  0  0  0  0  0  0  0  0  0
    0.0190   -2.6396   -2.9060 C   0  0  0  0  0  0  0  0  0  0  0  0
    8.7104    0.4556   -0.4961 C   0  0  0  0  0  0  0  0  0  0  0  0
    7.0401   -1.3723   -0.8559 C   0  0  0  0  0  0  0  0  0  0  0  0
   -4.2354    1.5102    1.9114 H   0  0  0  0  0  0  0  0  0  0  0  0
   -2.7450    1.1078    1.0623 H   0  0  0  0  0  0  0  0  0  0  0  0
   -4.2498   -2.2588    2.0302 H   0  0  0  0  0  0  0  0  0  0  0  0
   -4.2583   -0.8161    3.0473 H   0  0  0  0  0  0  0  0  0  0  0  0
   -3.9838    1.3735   -1.1567 H   0  0  0  0  0  0  0  0  0  0  0  0
   -5.3909    1.8903   -0.2537 H   0  0  0  0  0  0  0  0  0  0  0  0
   -1.8186    1.6818   -1.2696 H   0  0  0  0  0  0  0  0  0  0  0  0
   -2.1027   -2.1257    2.9738 H   0  0  0  0  0  0  0  0  0  0  0  0
   -1.9063   -0.4051    2.5968 H   0  0  0  0  0  0  0  0  0  0  0  0
   -4.2848    3.8234    0.6471 H   0  0  0  0  0  0  0  0  0  0  0  0
   -4.2147    3.8273   -1.1007 H   0  0  0  0  0  0  0  0  0  0  0  0
   -1.9726    3.1190    0.8724 H   0  0  0  0  0  0  0  0  0  0  0  0
   -2.0685    4.5367   -0.1369 H   0  0  0  0  0  0  0  0  0  0  0  0
    0.2871    3.8147   -0.7680 H   0  0  0  0  0  0  0  0  0  0  0  0
    0.4974    2.5282   -1.9422 H   0  0  0  0  0  0  0  0  0  0  0  0
   -6.1353   -0.1177   -0.2196 H   0  0  0  0  0  0  0  0  0  0  0  0
   -6.1370   -1.5132    0.8121 H   0  0  0  0  0  0  0  0  0  0  0  0
   -6.2939    0.0882    1.5488 H   0  0  0  0  0  0  0  0  0  0  0  0
    0.3012    0.8104   -0.2143 H   0  0  0  0  0  0  0  0  0  0  0  0
   -0.0209    2.0290    1.0076 H   0  0  0  0  0  0  0  0  0  0  0  0
    2.3550   -0.0661    1.0549 H   0  0  0  0  0  0  0  0  0  0  0  0
    2.5539    1.8299   -0.5897 H   0  0  0  0  0  0  0  0  0  0  0  0
    2.2489    2.9771    0.7014 H   0  0  0  0  0  0  0  0  0  0  0  0
    4.4656    0.5309    2.4160 H   0  0  0  0  0  0  0  0  0  0  0  0
    4.4063    2.1216    1.6672 H   0  0  0  0  0  0  0  0  0  0  0  0
   -1.7256    4.4456   -2.5891 H   0  0  0  0  0  0  0  0  0  0  0  0
   -1.3301    2.9201   -3.3927 H   0  0  0  0  0  0  0  0  0  0  0  0
   -2.9699    3.2002   -2.8296 H   0  0  0  0  0  0  0  0  0  0  0  0
    4.6654   -0.5714    0.2448 H   0  0  0  0  0  0  0  0  0  0  0  0
    4.5626    0.9670   -0.6122 H   0  0  0  0  0  0  0  0  0  0  0  0
    2.1360    2.1606    3.1479 H   0  0  0  0  0  0  0  0  0  0  0  0
    2.3902    0.4419    3.4996 H   0  0  0  0  0  0  0  0  0  0  0  0
    0.8868    0.9662    2.7512 H   0  0  0  0  0  0  0  0  0  0  0  0
    6.6016    1.7925    0.5459 H   0  0  0  0  0  0  0  0  0  0  0  0
    6.7433    0.2653    1.4101 H   0  0  0  0  0  0  0  0  0  0  0  0
    6.9029    0.6210   -1.6297 H   0  0  0  0  0  0  0  0  0  0  0  0
    0.0648   -3.3084    2.5690 H   0  0  0  0  0  0  0  0  0  0  0  0
    1.4543   -2.4722    1.8597 H   0  0  0  0  0  0  0  0  0  0  0  0
    0.2762   -1.5468    2.7515 H   0  0  0  0  0  0  0  0  0  0  0  0
   -2.0908   -0.9907   -3.4998 H   0  0  0  0  0  0  0  0  0  0  0  0
   -3.6003   -1.0257   -2.6302 H   0  0  0  0  0  0  0  0  0  0  0  0
   -2.9404   -2.5441   -3.2249 H   0  0  0  0  0  0  0  0  0  0  0  0
    0.7058   -1.8449   -3.2157 H   0  0  0  0  0  0  0  0  0  0  0  0
    0.5669   -3.5874   -2.8545 H   0  0  0  0  0  0  0  0  0  0  0  0
   -0.7094   -2.7891   -3.7069 H   0  0  0  0  0  0  0  0  0  0  0  0
    9.0961   -0.0114    0.4166 H   0  0  0  0  0  0  0  0  0  0  0  0
    9.3060    0.0924   -1.3404 H   0  0  0  0  0  0  0  0  0  0  0  0
    8.8695    1.5363   -0.4178 H   0  0  0  0  0  0  0  0  0  0  0  0
    7.2528   -1.8985    0.0808 H   0  0  0  0  0  0  0  0  0  0  0  0
    7.7122   -1.7686   -1.6250 H   0  0  0  0  0  0  0  0  0  0  0  0
    6.0206   -1.6202   -1.1655 H   0  0  0  0  0  0  0  0  0  0  0  0
    1.7856   -2.8482   -1.3609 H   0  0  0  0  0  0  0  0  0  0  0  0
  1  3  1  0  0  0  0
  1 14  1  0  0  0  0
  2 25  1  0  0  0  0
  2 84  1  0  0  0  0
  3  4  1  0  0  0  0
  3  5  1  0  0  0  0
  3 12  1  0  0  0  0
  4  6  1  0  0  0  0
  4 33  1  0  0  0  0
  4 34  1  0  0  0  0
  5  8  1  0  0  0  0
  5 35  1  0  0  0  0
  5 36  1  0  0  0  0
  6  9  1  0  0  0  0
  6 37  1  0  0  0  0
  6 38  1  0  0  0  0
  7 10  1  0  0  0  0
  7 11  1  0  0  0  0
  7 20  1  0  0  0  0
  7 39  1  0  0  0  0
  8 13  1  0  0  0  0
  8 40  1  0  0  0  0
  8 41  1  0  0  0  0
  9 10  1  0  0  0  0
  9 42  1  0  0  0  0
  9 43  1  0  0  0  0
 10 44  1  0  0  0  0
 10 45  1  0  0  0  0
 11 15  1  0  0  0  0
 11 46  1  0  0  0  0
 11 47  1  0  0  0  0
 12 48  1  0  0  0  0
 12 49  1  0  0  0  0
 12 50  1  0  0  0  0
 13 14  2  0  0  0  0
 13 19  1  0  0  0  0
 14 21  1  0  0  0  0
 15 17  1  0  0  0  0
 15 51  1  0  0  0  0
 15 52  1  0  0  0  0
 16 17  1  0  0  0  0
 16 18  1  0  0  0  0
 16 24  1  0  0  0  0
 16 53  1  0  0  0  0
 17 54  1  0  0  0  0
 17 55  1  0  0  0  0
 18 22  1  0  0  0  0
 18 56  1  0  0  0  0
 18 57  1  0  0  0  0
 19 25  2  0  0  0  0
 19 28  1  0  0  0  0
 20 58  1  0  0  0  0
 20 59  1  0  0  0  0
 20 60  1  0  0  0  0
 21 23  2  0  0  0  0
 21 29  1  0  0  0  0
 22 26  1  0  0  0  0
 22 61  1  0  0  0  0
 22 62  1  0  0  0  0
 23 25  1  0  0  0  0
 23 30  1  0  0  0  0
 24 63  1  0  0  0  0
 24 64  1  0  0  0  0
 24 65  1  0  0  0  0
 26 27  1  0  0  0  0
 26 66  1  0  0  0  0
 26 67  1  0  0  0  0
 27 31  1  0  0  0  0
 27 32  1  0  0  0  0
 27 68  1  0  0  0  0
 28 69  1  0  0  0  0
 28 70  1  0  0  0  0
 28 71  1  0  0  0  0
 29 72  1  0  0  0  0
 29 73  1  0  0  0  0
 29 74  1  0  0  0  0
 30 75  1  0  0  0  0
 30 76  1  0  0  0  0
 30 77  1  0  0  0  0
 31 78  1  0  0  0  0
 31 79  1  0  0  0  0
 31 80  1  0  0  0  0
 32 81  1  0  0  0  0
 32 82  1  0  0  0  0
 32 83  1  0  0  0  0
M  END
> <PUBCHEM_COMPOUND_CID>
9698

> <PUBCHEM_CONFORMER_RMSD>
1.8

> <PUBCHEM_CONFORMER_DIVERSEORDER>
1
83
41
17
4
64
74
67
79
57
32
86
44
33
34
26
88
13
82
9
93
18
54
62
66
45
95
72
75
69
16
42
5
50
94
48
71
7
8
14
51
55
89
46
24
6
43
80
12
84
96
76
56
25
19
36
15
35
49
92
28
60
30
63
47
87
73
65
3
23
39
20
59
61
91
11
78
10
2
77
58
68
90
81
40
70
52
85
38
22
21
53
37
29
27
31

> <PUBCHEM_MMFF94_PARTIAL_CHARGES>
14
1 -0.36
13 -0.14
14 0.08
19 -0.14
2 -0.53
21 -0.14
23 -0.14
25 0.08
28 0.14
29 0.14
3 0.28
30 0.14
8 0.14
84 0.45

> <PUBCHEM_EFFECTIVE_ROTOR_COUNT>
13.8

> <PUBCHEM_PHARMACOPHORE_FEATURES>
7
1 1 acceptor
1 2 donor
1 20 hydrophobe
1 24 hydrophobe
3 27 31 32 hydrophobe
6 1 3 5 8 13 14 rings
6 13 14 19 21 23 25 rings

> <PUBCHEM_HEAVY_ATOM_COUNT>
32

> <PUBCHEM_ATOM_DEF_STEREO_COUNT>
0

> <PUBCHEM_ATOM_UDEF_STEREO_COUNT>
3

> <PUBCHEM_BOND_DEF_STEREO_COUNT>
0

> <PUBCHEM_BOND_UDEF_STEREO_COUNT>
0

> <PUBCHEM_ISOTOPIC_ATOM_COUNT>
0

> <PUBCHEM_COMPONENT_COUNT>
1

> <PUBCHEM_CACTVS_TAUTO_COUNT>
9

> <PUBCHEM_CONFORMER_ID>
000025E200000001

> <PUBCHEM_MMFF94_ENERGY>
74.544

> <PUBCHEM_FEATURE_SELFOVERLAP>
35.549

> <PUBCHEM_SHAPE_FINGERPRINT>
10670039 82 18273217504105959312
11524674 6 18041285447374459508
12156800 1 17914586536156156045
12422481 6 18193017004235883866
12522641 33 17914066549832541109
13402501 40 18408600392255885920
14279260 333 17846228774067660680
14856354 85 17846210025786645378
14930077 153 18130493142932582348
15183329 4 17603578626412315866
15274700 242 17632034009045980984
15276724 80 18341891841210763412
15361156 5 18266176124789784052
18603816 31 15719395045290473862
23559900 14 16226335790219717794
508706 21 18335709316912176942
5265222 85 18336542721457530228

> <PUBCHEM_SHAPE_MULTIPOLES>
646.81
14.54
4.37
2.59
38.42
1.89
-0.52
2.42
0.23
-3.73
-2.02
-1.25
-0.98
1.66

> <PUBCHEM_SHAPE_SELFOVERLAP>
1293.974

> <PUBCHEM_SHAPE_VOLUME>
385.2

> <PUBCHEM_COORDINATE_TYPE>
2
5
10

$$$$

