11083
  -OEChem-06261205183D

 23 23  0     1  0  0  0  0  0999 V2000
    2.5663   -0.3503   -1.3134 O   0  0  0  0  0  0  0  0  0  0  0  0
   -0.6018    2.2325    0.2590 O   0  0  0  0  0  0  0  0  0  0  0  0
    2.1151   -0.0349   -0.0027 C   0  0  2  0  0  0  0  0  0  0  0  0
    0.8876   -0.8385    0.3316 C   0  0  0  0  0  0  0  0  0  0  0  0
    1.6584    1.4183    0.0398 C   0  0  0  0  0  0  0  0  0  0  0  0
   -0.2291   -0.1107    0.4710 C   0  0  0  0  0  0  0  0  0  0  0  0
    0.1780    1.2910    0.2479 C   0  0  0  0  0  0  0  0  0  0  0  0
   -1.6301   -0.4838    0.7749 C   0  0  0  0  0  0  0  0  0  0  0  0
    1.0145   -2.3194    0.4755 C   0  0  0  0  0  0  0  0  0  0  0  0
   -2.4359   -0.7499   -0.4648 C   0  0  0  0  0  0  0  0  0  0  0  0
   -3.5228   -0.0543   -0.8187 C   0  0  0  0  0  0  0  0  0  0  0  0
    2.9322   -0.2066    0.7059 H   0  0  0  0  0  0  0  0  0  0  0  0
    1.8679    1.9612   -0.8858 H   0  0  0  0  0  0  0  0  0  0  0  0
    2.0839    1.9427    0.9011 H   0  0  0  0  0  0  0  0  0  0  0  0
   -1.6522   -1.3874    1.3957 H   0  0  0  0  0  0  0  0  0  0  0  0
   -2.0984    0.2970    1.3871 H   0  0  0  0  0  0  0  0  0  0  0  0
    1.3463   -2.7695   -0.4652 H   0  0  0  0  0  0  0  0  0  0  0  0
    0.0680   -2.7935    0.7504 H   0  0  0  0  0  0  0  0  0  0  0  0
    1.7456   -2.5623    1.2531 H   0  0  0  0  0  0  0  0  0  0  0  0
    2.9491   -1.2437   -1.2868 H   0  0  0  0  0  0  0  0  0  0  0  0
   -2.1181   -1.5721   -1.1017 H   0  0  0  0  0  0  0  0  0  0  0  0
   -4.0641   -0.3041   -1.7246 H   0  0  0  0  0  0  0  0  0  0  0  0
   -3.8883    0.7707   -0.2173 H   0  0  0  0  0  0  0  0  0  0  0  0
  1  3  1  0  0  0  0
  1 20  1  0  0  0  0
  2  7  2  0  0  0  0
  3  4  1  0  0  0  0
  3  5  1  0  0  0  0
  3 12  1  0  0  0  0
  4  6  2  0  0  0  0
  4  9  1  0  0  0  0
  5  7  1  0  0  0  0
  5 13  1  0  0  0  0
  5 14  1  0  0  0  0
  6  7  1  0  0  0  0
  6  8  1  0  0  0  0
  8 10  1  0  0  0  0
  8 15  1  0  0  0  0
  8 16  1  0  0  0  0
  9 17  1  0  0  0  0
  9 18  1  0  0  0  0
  9 19  1  0  0  0  0
 10 11  2  0  0  0  0
 10 21  1  0  0  0  0
 11 22  1  0  0  0  0
 11 23  1  0  0  0  0
M  END
> <PUBCHEM_COMPOUND_CID>
11083

> <PUBCHEM_CONFORMER_RMSD>
0.6

> <PUBCHEM_CONFORMER_DIVERSEORDER>
1
8
3
5
7
4
6
2

> <PUBCHEM_MMFF94_PARTIAL_CHARGES>
15
1 -0.68
10 -0.29
11 -0.3
2 -0.57
20 0.4
21 0.15
22 0.15
23 0.15
3 0.42
4 -0.28
5 0.06
6 -0.12
7 0.49
8 0.28
9 0.14

> <PUBCHEM_EFFECTIVE_ROTOR_COUNT>
2.4

> <PUBCHEM_PHARMACOPHORE_FEATURES>
5
1 1 acceptor
1 1 donor
1 11 hydrophobe
1 2 acceptor
5 3 4 5 6 7 rings

> <PUBCHEM_HEAVY_ATOM_COUNT>
11

> <PUBCHEM_ATOM_DEF_STEREO_COUNT>
0

> <PUBCHEM_ATOM_UDEF_STEREO_COUNT>
1

> <PUBCHEM_BOND_DEF_STEREO_COUNT>
0

> <PUBCHEM_BOND_UDEF_STEREO_COUNT>
0

> <PUBCHEM_ISOTOPIC_ATOM_COUNT>
0

> <PUBCHEM_COMPONENT_COUNT>
1

> <PUBCHEM_CACTVS_TAUTO_COUNT>
5

> <PUBCHEM_CONFORMER_ID>
00002B4B00000001

> <PUBCHEM_MMFF94_ENERGY>
6.1507

> <PUBCHEM_FEATURE_SELFOVERLAP>
25.371

> <PUBCHEM_SHAPE_FINGERPRINT>
10353120 184 18266434612135876565
11031198 65 18202563973542335679
11206711 2 18340474677373679148
12138202 97 17908978816844030382
12897270 3 18412544301577949711
16945 1 18412819205122724938
20201158 50 18343311370223587683
20653085 51 15482373301345623830
21040471 1 17980482252447114520
23402655 69 18338532876057926813
23419403 2 16977650935678556690
23552423 10 18055911249636055146
2748010 2 18123739860129142234

> <PUBCHEM_SHAPE_MULTIPOLES>
214.64
3.97
1.96
0.92
3.04
0.01
0.16
-0.32
1.54
-0.68
-0.34
-0.04
-0.1
-0.01

> <PUBCHEM_SHAPE_SELFOVERLAP>
434.761

> <PUBCHEM_SHAPE_VOLUME>
128

> <PUBCHEM_COORDINATE_TYPE>
2
5
10

$$$$

