8349
  -OEChem-06261202452D

 32 33  0     0  0  0  0  0  0999 V2000
    6.3465   -1.4330    0.0000 S   0  0  0  0  0  0  0  0  0  0  0  0
    8.1282    1.6258    0.0000 S   0  0  0  0  0  0  0  0  0  0  0  0
    2.8660    1.6016    0.0000 S   0  0  0  0  0  0  0  0  0  0  0  0
    6.3349   -2.4329    0.0000 O   0  0  0  0  0  0  0  0  0  0  0  0
    8.9923    2.1291    0.0000 O   0  0  0  0  0  0  0  0  0  0  0  0
    2.0000    2.1016    0.0000 O   0  0  0  0  0  0  0  0  0  0  0  0
    7.3464   -1.4445    0.0000 O   0  0  0  0  0  0  0  0  0  0  0  0
    5.3466   -1.4214    0.0000 O   0  0  0  0  0  0  0  0  0  0  0  0
    7.6249    2.4899    0.0000 O   0  0  0  0  0  0  0  0  0  0  0  0
    8.6315    0.7617    0.0000 O   0  0  0  0  0  0  0  0  0  0  0  0
    3.3660    2.4676    0.0000 O   0  0  0  0  0  0  0  0  0  0  0  0
    2.3660    0.7356    0.0000 O   0  0  0  0  0  0  0  0  0  0  0  0
    2.8660   -0.3984    0.0000 N   0  0  0  0  0  0  0  0  0  0  0  0
    5.4641    0.1016    0.0000 C   0  0  0  0  0  0  0  0  0  0  0  0
    5.4641    1.1016    0.0000 C   0  0  0  0  0  0  0  0  0  0  0  0
    6.3580   -0.4330    0.0000 C   0  0  0  0  0  0  0  0  0  0  0  0
    7.2641    1.1224    0.0000 C   0  0  0  0  0  0  0  0  0  0  0  0
    6.3580    1.6363    0.0000 C   0  0  0  0  0  0  0  0  0  0  0  0
    3.7320    1.1016    0.0000 C   0  0  0  0  0  0  0  0  0  0  0  0
    4.5981    1.6016    0.0000 C   0  0  0  0  0  0  0  0  0  0  0  0
    4.5981   -0.3984    0.0000 C   0  0  0  0  0  0  0  0  0  0  0  0
    7.2641    0.0808    0.0000 C   0  0  0  0  0  0  0  0  0  0  0  0
    3.7320    0.1016    0.0000 C   0  0  0  0  0  0  0  0  0  0  0  0
    6.3509    2.2562    0.0000 H   0  0  0  0  0  0  0  0  0  0  0  0
    4.5981    2.2216    0.0000 H   0  0  0  0  0  0  0  0  0  0  0  0
    4.5981   -1.0184    0.0000 H   0  0  0  0  0  0  0  0  0  0  0  0
    7.7998   -0.2313    0.0000 H   0  0  0  0  0  0  0  0  0  0  0  0
    2.8660   -1.0184    0.0000 H   0  0  0  0  0  0  0  0  0  0  0  0
    2.3291   -0.0884    0.0000 H   0  0  0  0  0  0  0  0  0  0  0  0
    6.8682   -2.7491    0.0000 H   0  0  0  0  0  0  0  0  0  0  0  0
    8.9899    2.7491    0.0000 H   0  0  0  0  0  0  0  0  0  0  0  0
    2.0000    2.7216    0.0000 H   0  0  0  0  0  0  0  0  0  0  0  0
  1  4  1  0  0  0  0
  1  7  2  0  0  0  0
  1  8  2  0  0  0  0
  1 16  1  0  0  0  0
  2  5  1  0  0  0  0
  2  9  2  0  0  0  0
  2 10  2  0  0  0  0
  2 17  1  0  0  0  0
  3  6  1  0  0  0  0
  3 11  2  0  0  0  0
  3 12  2  0  0  0  0
  3 19  1  0  0  0  0
  4 30  1  0  0  0  0
  5 31  1  0  0  0  0
  6 32  1  0  0  0  0
 13 23  1  0  0  0  0
 13 28  1  0  0  0  0
 13 29  1  0  0  0  0
 14 15  1  0  0  0  0
 14 16  2  0  0  0  0
 14 21  1  0  0  0  0
 15 18  2  0  0  0  0
 15 20  1  0  0  0  0
 16 22  1  0  0  0  0
 17 18  1  0  0  0  0
 17 22  2  0  0  0  0
 18 24  1  0  0  0  0
 19 20  2  0  0  0  0
 19 23  1  0  0  0  0
 20 25  1  0  0  0  0
 21 23  2  0  0  0  0
 21 26  1  0  0  0  0
 22 27  1  0  0  0  0
M  END
> <PUBCHEM_COMPOUND_CID>
8349

> <PUBCHEM_COMPOUND_CANONICALIZED>
1

> <PUBCHEM_CACTVS_COMPLEXITY>
756

> <PUBCHEM_CACTVS_HBOND_ACCEPTOR>
10

> <PUBCHEM_CACTVS_HBOND_DONOR>
4

> <PUBCHEM_CACTVS_ROTATABLE_BOND>
3

> <PUBCHEM_CACTVS_SUBSKEYS>
AAADccByPABgAAAAAAAAAAAAAAAAAAAAAAAwYAAAAAAAAADBUAAAHAQQCAAADAiBWAAwwcBAAIKAAiRCQHDCAEAgAgAAiBwAZIgIICKAkZGAIABgkAAIyAcQgIAOmAAAwEAUAQAwAAGAgCgCAAAAAAAAAA==

> <PUBCHEM_IUPAC_OPENEYE_NAME>
7-aminonaphthalene-1,3,6-trisulfonic acid

> <PUBCHEM_IUPAC_CAS_NAME>
7-aminonaphthalene-1,3,6-trisulfonic acid

> <PUBCHEM_IUPAC_NAME>
7-aminonaphthalene-1,3,6-trisulfonic acid

> <PUBCHEM_IUPAC_SYSTEMATIC_NAME>
7-azanylnaphthalene-1,3,6-trisulfonic acid

> <PUBCHEM_IUPAC_TRADITIONAL_NAME>
7-aminonaphthalene-1,3,6-trisulfonic acid

> <PUBCHEM_IUPAC_INCHI>
InChI=1S/C10H9NO9S3/c11-8-4-7-5(2-10(8)23(18,19)20)1-6(21(12,13)14)3-9(7)22(15,16)17/h1-4H,11H2,(H,12,13,14)(H,15,16,17)(H,18,19,20)

> <PUBCHEM_IUPAC_INCHIKEY>
GFPQSWFFPRQEHH-UHFFFAOYSA-N

> <PUBCHEM_XLOGP3_AA>
-0.7

> <PUBCHEM_EXACT_MASS>
382.943944

> <PUBCHEM_MOLECULAR_FORMULA>
C10H9NO9S3

> <PUBCHEM_MOLECULAR_WEIGHT>
383.37476

> <PUBCHEM_OPENEYE_CAN_SMILES>
C1=C2C=C(C=C(C2=CC(=C1S(=O)(=O)O)N)S(=O)(=O)O)S(=O)(=O)O

> <PUBCHEM_OPENEYE_ISO_SMILES>
C1=C2C=C(C=C(C2=CC(=C1S(=O)(=O)O)N)S(=O)(=O)O)S(=O)(=O)O

> <PUBCHEM_CACTVS_TPSA>
214

> <PUBCHEM_MONOISOTOPIC_WEIGHT>
382.943944

> <PUBCHEM_TOTAL_CHARGE>
0

> <PUBCHEM_HEAVY_ATOM_COUNT>
23

> <PUBCHEM_ATOM_DEF_STEREO_COUNT>
0

> <PUBCHEM_ATOM_UDEF_STEREO_COUNT>
0

> <PUBCHEM_BOND_DEF_STEREO_COUNT>
0

> <PUBCHEM_BOND_UDEF_STEREO_COUNT>
0

> <PUBCHEM_ISOTOPIC_ATOM_COUNT>
0

> <PUBCHEM_COMPONENT_COUNT>
1

> <PUBCHEM_CACTVS_TAUTO_COUNT>
1

> <PUBCHEM_COORDINATE_TYPE>
1
5
255

> <PUBCHEM_BONDANNOTATIONS>
14  15  8
14  16  8
14  21  8
15  18  8
15  20  8
16  22  8
17  18  8
17  22  8
19  20  8
19  23  8
21  23  8

$$$$

