17395837
  -OEChem-06241222523D

 36 38  0     0  0  0  0  0  0999 V2000
   -6.1725    1.1374   -1.0642 S   0  0  0  0  0  0  0  0  0  0  0  0
    1.8670   -2.1205   -0.1505 S   0  0  0  0  0  0  0  0  0  0  0  0
   -4.4611   -0.3876    2.0453 O   0  0  0  0  0  0  0  0  0  0  0  0
   -1.7790    0.8132   -0.1491 O   0  0  0  0  0  0  0  0  0  0  0  0
   -4.1790   -0.3953   -0.2736 N   0  0  0  0  0  0  0  0  0  0  0  0
   -0.5917   -1.2256   -0.1983 N   0  0  0  0  0  0  0  0  0  0  0  0
    1.2045    0.3706   -0.0638 N   0  0  0  0  0  0  0  0  0  0  0  0
   -3.0231   -1.2435   -0.2876 C   0  0  0  0  0  0  0  0  0  0  0  0
   -4.7518    0.1308   -1.4997 C   0  0  0  0  0  0  0  0  0  0  0  0
   -4.8089   -0.0349    0.9216 C   0  0  0  0  0  0  0  0  0  0  0  0
   -6.0016    0.8622    0.7063 C   0  0  0  0  0  0  0  0  0  0  0  0
    2.5901    0.3216   -0.0174 C   0  0  0  0  0  0  0  0  0  0  0  0
    3.1413   -0.9629   -0.0542 C   0  0  0  0  0  0  0  0  0  0  0  0
    3.4609    1.4304    0.0615 C   0  0  0  0  0  0  0  0  0  0  0  0
   -1.7561   -0.4120   -0.2030 C   0  0  0  0  0  0  0  0  0  0  0  0
    5.3680   -0.0617    0.0635 C   0  0  0  0  0  0  0  0  0  0  0  0
    0.7236   -0.8487   -0.1351 C   0  0  0  0  0  0  0  0  0  0  0  0
    4.5286   -1.1760   -0.0147 C   0  0  0  0  0  0  0  0  0  0  0  0
    4.8431    1.2255    0.1011 C   0  0  0  0  0  0  0  0  0  0  0  0
    2.9508    2.8361    0.1048 C   0  0  0  0  0  0  0  0  0  0  0  0
    6.8470   -0.2590    0.1070 C   0  0  0  0  0  0  0  0  0  0  0  0
   -3.0480   -1.9181    0.5753 H   0  0  0  0  0  0  0  0  0  0  0  0
   -3.0176   -1.8406   -1.2051 H   0  0  0  0  0  0  0  0  0  0  0  0
   -3.9998    0.7318   -2.0186 H   0  0  0  0  0  0  0  0  0  0  0  0
   -5.0570   -0.7051   -2.1356 H   0  0  0  0  0  0  0  0  0  0  0  0
   -6.8985    0.3759    1.0984 H   0  0  0  0  0  0  0  0  0  0  0  0
   -5.8388    1.8133    1.2193 H   0  0  0  0  0  0  0  0  0  0  0  0
    4.9345   -2.1832   -0.0425 H   0  0  0  0  0  0  0  0  0  0  0  0
    5.5118    2.0817    0.1638 H   0  0  0  0  0  0  0  0  0  0  0  0
   -0.7336   -2.2317   -0.2484 H   0  0  0  0  0  0  0  0  0  0  0  0
    3.3348    3.4039   -0.7491 H   0  0  0  0  0  0  0  0  0  0  0  0
    1.8578    2.8772    0.0678 H   0  0  0  0  0  0  0  0  0  0  0  0
    3.2716    3.3261    1.0300 H   0  0  0  0  0  0  0  0  0  0  0  0
    7.1881   -0.3120    1.1456 H   0  0  0  0  0  0  0  0  0  0  0  0
    7.1397   -1.1819   -0.4050 H   0  0  0  0  0  0  0  0  0  0  0  0
    7.3693    0.5634   -0.3938 H   0  0  0  0  0  0  0  0  0  0  0  0
  1  9  1  0  0  0  0
  1 11  1  0  0  0  0
  2 13  1  0  0  0  0
  2 17  1  0  0  0  0
  3 10  2  0  0  0  0
  4 15  2  0  0  0  0
  5  8  1  0  0  0  0
  5  9  1  0  0  0  0
  5 10  1  0  0  0  0
  6 15  1  0  0  0  0
  6 17  1  0  0  0  0
  6 30  1  0  0  0  0
  7 12  1  0  0  0  0
  7 17  2  0  0  0  0
  8 15  1  0  0  0  0
  8 22  1  0  0  0  0
  8 23  1  0  0  0  0
  9 24  1  0  0  0  0
  9 25  1  0  0  0  0
 10 11  1  0  0  0  0
 11 26  1  0  0  0  0
 11 27  1  0  0  0  0
 12 13  1  0  0  0  0
 12 14  2  0  0  0  0
 13 18  2  0  0  0  0
 14 19  1  0  0  0  0
 14 20  1  0  0  0  0
 16 18  1  0  0  0  0
 16 19  2  0  0  0  0
 16 21  1  0  0  0  0
 18 28  1  0  0  0  0
 19 29  1  0  0  0  0
 20 31  1  0  0  0  0
 20 32  1  0  0  0  0
 20 33  1  0  0  0  0
 21 34  1  0  0  0  0
 21 35  1  0  0  0  0
 21 36  1  0  0  0  0
M  END
> <PUBCHEM_COMPOUND_CID>
17395837

> <PUBCHEM_CONFORMER_RMSD>
0.8

> <PUBCHEM_CONFORMER_DIVERSEORDER>
1
32
11
30
8
26
27
25
28
14
24
29
21
31
13
16
12
9
23
15
34
2
7
22
10
6
18
33
19
17
20
4
5
3

> <PUBCHEM_MMFF94_PARTIAL_CHARGES>
24
1 -0.46
10 0.57
11 0.29
12 0.23
13 0.04
14 -0.14
15 0.57
16 -0.14
17 0.44
18 -0.15
19 -0.15
2 -0.08
20 0.14
21 0.14
28 0.15
29 0.15
3 -0.57
30 0.37
4 -0.57
5 -0.66
6 -0.49
7 -0.57
8 0.36
9 0.53

> <PUBCHEM_EFFECTIVE_ROTOR_COUNT>
4.8

> <PUBCHEM_PHARMACOPHORE_FEATURES>
6
1 3 acceptor
1 4 acceptor
1 6 donor
5 1 5 9 10 11 rings
5 2 7 12 13 17 rings
6 12 13 14 16 18 19 rings

> <PUBCHEM_HEAVY_ATOM_COUNT>
21

> <PUBCHEM_ATOM_DEF_STEREO_COUNT>
0

> <PUBCHEM_ATOM_UDEF_STEREO_COUNT>
0

> <PUBCHEM_BOND_DEF_STEREO_COUNT>
0

> <PUBCHEM_BOND_UDEF_STEREO_COUNT>
0

> <PUBCHEM_ISOTOPIC_ATOM_COUNT>
0

> <PUBCHEM_COMPONENT_COUNT>
1

> <PUBCHEM_CACTVS_TAUTO_COUNT>
3

> <PUBCHEM_CONFORMER_ID>
0109707D00000001

> <PUBCHEM_MMFF94_ENERGY>
42.1668

> <PUBCHEM_FEATURE_SELFOVERLAP>
30.517

> <PUBCHEM_SHAPE_FINGERPRINT>
10411042 1 17905327682780387366
10688039 33 18059857298490454380
10763959 59 18272375269408987252
11045977 3 18060134315079361545
11089746 13 17312825969784242896
11315181 36 17167866344473601627
11545043 162 17489583437896676849
12091667 2 17989489619395678919
12236239 1 17603870004760424758
13167372 99 18260827150137193545
13533116 47 16660640817370061542
13631057 29 18042696009936558575
13675066 3 17989202634192036407
14251718 22 6194840375822011763
14341114 176 18343016688312067196
14528608 73 18186807954646525503
15142383 8 18131075961029648508
15183329 4 18333453152994838156
15348495 7 17774997943157719681
15483637 11 18122909990659716316
15716309 27 12751519591490212255
17844677 252 18201715128974818213
19489759 90 16630527336983604211
20281389 69 18412265017156067649
20645477 56 18131638893834914367
21033648 29 17988658371230194861
21033650 10 15503470726106283514
21150785 3 15140969443563431765
21267235 1 18410287043710124782
21709351 56 18336553719940192022
21792961 116 18129667525795646910
220451 1 14333410055794392472
221357 26 18408889568251649772
23402539 116 17022624173547234333
23402655 69 18187650184542712926
23557571 272 17203334463276144815
23559900 14 18408891706960447874
29717793 49 17458059374729825412
300161 21 18113341920462625183
335352 9 18409167702181504750
34797466 226 14273741707560390409
350125 39 18411981352126110700
3545911 37 18413389838756983343
4073 2 18060135388742642546
4340502 62 16558753412893639266
465052 167 10952051169375526888
5104073 3 18340491045520561338
542803 24 17530965791232829551
602551 16 16200142145505187523
8272917 22 18261388975257816646

> <PUBCHEM_SHAPE_MULTIPOLES>
413.19
17.13
1.9
1.01
7.69
0.67
-0.19
3.88
-0.29
-1.82
0.06
1.99
0.01
0.44

> <PUBCHEM_SHAPE_SELFOVERLAP>
858.377

> <PUBCHEM_SHAPE_VOLUME>
239.4

> <PUBCHEM_COORDINATE_TYPE>
2
5
10

$$$$

