583347
  -OEChem-06241222452D

 42 43  0     0  0  0  0  0  0999 V2000
    4.9889   -1.0740    0.0000 S   0  0  0  0  0  0  0  0  0  0  0  0
    6.1279    1.1813    0.0000 S   0  0  0  0  0  0  0  0  0  0  0  0
    5.9394   -0.7633    0.0000 O   0  0  0  0  0  0  0  0  0  0  0  0
    4.0384   -1.3847    0.0000 O   0  0  0  0  0  0  0  0  0  0  0  0
    5.6279    2.0473    0.0000 O   0  0  0  0  0  0  0  0  0  0  0  0
    6.6279    0.3152    0.0000 O   0  0  0  0  0  0  0  0  0  0  0  0
    3.7320    1.1813    0.0000 N   0  0  0  0  0  0  0  0  0  0  0  0
    2.8660   -1.3187    0.0000 N   0  0  0  0  0  0  0  0  0  0  0  0
    4.6783   -0.1235    0.0000 C   0  0  0  0  0  0  0  0  0  0  0  0
    5.2619    0.6813    0.0000 C   0  0  0  0  0  0  0  0  0  0  0  0
    3.7320    0.1813    0.0000 C   0  0  0  0  0  0  0  0  0  0  0  0
    4.6783    1.4860    0.0000 C   0  0  0  0  0  0  0  0  0  0  0  0
    5.2996   -2.0245    0.0000 C   0  0  0  0  0  0  0  0  0  0  0  0
    6.9939    1.6813    0.0000 C   0  0  0  0  0  0  0  0  0  0  0  0
    2.8660   -0.3187    0.0000 C   0  0  0  0  0  0  0  0  0  0  0  0
    6.2781   -2.2307    0.0000 C   0  0  0  0  0  0  0  0  0  0  0  0
    6.9939    2.6813    0.0000 C   0  0  0  0  0  0  0  0  0  0  0  0
    2.8660    1.6813    0.0000 C   0  0  0  0  0  0  0  0  0  0  0  0
    2.0000    0.1813    0.0000 C   0  0  0  0  0  0  0  0  0  0  0  0
    2.0000    1.1813    0.0000 C   0  0  0  0  0  0  0  0  0  0  0  0
    6.5888   -3.1813    0.0000 C   0  0  0  0  0  0  0  0  0  0  0  0
    7.8600    3.1813    0.0000 C   0  0  0  0  0  0  0  0  0  0  0  0
    4.8709    2.0753    0.0000 H   0  0  0  0  0  0  0  0  0  0  0  0
    4.6858   -2.1119    0.0000 H   0  0  0  0  0  0  0  0  0  0  0  0
    5.2790   -2.6442    0.0000 H   0  0  0  0  0  0  0  0  0  0  0  0
    7.2060    1.0986    0.0000 H   0  0  0  0  0  0  0  0  0  0  0  0
    7.6045    1.7889    0.0000 H   0  0  0  0  0  0  0  0  0  0  0  0
    6.8919   -2.1434    0.0000 H   0  0  0  0  0  0  0  0  0  0  0  0
    6.2987   -1.6111    0.0000 H   0  0  0  0  0  0  0  0  0  0  0  0
    6.7819    3.2639    0.0000 H   0  0  0  0  0  0  0  0  0  0  0  0
    6.3834    2.5736    0.0000 H   0  0  0  0  0  0  0  0  0  0  0  0
    2.8660    2.3013    0.0000 H   0  0  0  0  0  0  0  0  0  0  0  0
    1.4631   -0.1287    0.0000 H   0  0  0  0  0  0  0  0  0  0  0  0
    1.4631    1.4913    0.0000 H   0  0  0  0  0  0  0  0  0  0  0  0
    5.9994   -3.3739    0.0000 H   0  0  0  0  0  0  0  0  0  0  0  0
    6.7814   -3.7706    0.0000 H   0  0  0  0  0  0  0  0  0  0  0  0
    7.1781   -2.9886    0.0000 H   0  0  0  0  0  0  0  0  0  0  0  0
    8.1700    2.6443    0.0000 H   0  0  0  0  0  0  0  0  0  0  0  0
    8.3969    3.4913    0.0000 H   0  0  0  0  0  0  0  0  0  0  0  0
    7.5500    3.7182    0.0000 H   0  0  0  0  0  0  0  0  0  0  0  0
    2.3291   -1.6287    0.0000 H   0  0  0  0  0  0  0  0  0  0  0  0
    3.4030   -1.6287    0.0000 H   0  0  0  0  0  0  0  0  0  0  0  0
  1  3  2  0  0  0  0
  1  4  2  0  0  0  0
  1  9  1  0  0  0  0
  1 13  1  0  0  0  0
  2  5  2  0  0  0  0
  2  6  2  0  0  0  0
  2 10  1  0  0  0  0
  2 14  1  0  0  0  0
  7 11  1  0  0  0  0
  7 12  1  0  0  0  0
  7 18  1  0  0  0  0
  8 15  1  0  0  0  0
  8 41  1  0  0  0  0
  8 42  1  0  0  0  0
  9 10  1  0  0  0  0
  9 11  2  0  0  0  0
 10 12  2  0  0  0  0
 11 15  1  0  0  0  0
 12 23  1  0  0  0  0
 13 16  1  0  0  0  0
 13 24  1  0  0  0  0
 13 25  1  0  0  0  0
 14 17  1  0  0  0  0
 14 26  1  0  0  0  0
 14 27  1  0  0  0  0
 15 19  2  0  0  0  0
 16 21  1  0  0  0  0
 16 28  1  0  0  0  0
 16 29  1  0  0  0  0
 17 22  1  0  0  0  0
 17 30  1  0  0  0  0
 17 31  1  0  0  0  0
 18 20  2  0  0  0  0
 18 32  1  0  0  0  0
 19 20  1  0  0  0  0
 19 33  1  0  0  0  0
 20 34  1  0  0  0  0
 21 35  1  0  0  0  0
 21 36  1  0  0  0  0
 21 37  1  0  0  0  0
 22 38  1  0  0  0  0
 22 39  1  0  0  0  0
 22 40  1  0  0  0  0
M  END
> <PUBCHEM_COMPOUND_CID>
583347

> <PUBCHEM_COMPOUND_CANONICALIZED>
1

> <PUBCHEM_CACTVS_COMPLEXITY>
577

> <PUBCHEM_CACTVS_HBOND_ACCEPTOR>
5

> <PUBCHEM_CACTVS_HBOND_DONOR>
1

> <PUBCHEM_CACTVS_ROTATABLE_BOND>
6

> <PUBCHEM_CACTVS_SUBSKEYS>
AAADceBzOABgAAAAAAAAAAAAAAAAAWAAAAAsAAAAAAAAAFgB4AAAHAQQAAAACAjFVgS+wbNMGAqgATRnRHDCgCAxGjAI2Dw4dJgIYOLgkZGUIAxgkADoyAcQgIAAAAAAAAAAAAAAAAAAAAAAAAAAAAAAAA==

> <PUBCHEM_IUPAC_OPENEYE_NAME>
1,2-bis(propylsulfonyl)indolizin-8-amine

> <PUBCHEM_IUPAC_CAS_NAME>
1,2-bis(propylsulfonyl)-8-indolizinamine

> <PUBCHEM_IUPAC_NAME>
1,2-bis(propylsulfonyl)indolizin-8-amine

> <PUBCHEM_IUPAC_SYSTEMATIC_NAME>
1,2-bis(propylsulfonyl)indolizin-8-amine

> <PUBCHEM_IUPAC_TRADITIONAL_NAME>
[1,2-bis(propylsulfonyl)indolizin-8-yl]amine

> <PUBCHEM_IUPAC_INCHI>
InChI=1S/C14H20N2O4S2/c1-3-8-21(17,18)12-10-16-7-5-6-11(15)13(16)14(12)22(19,20)9-4-2/h5-7,10H,3-4,8-9,15H2,1-2H3

> <PUBCHEM_IUPAC_INCHIKEY>
CNQUKOJNLRDQBY-UHFFFAOYSA-N

> <PUBCHEM_XLOGP3_AA>
2.1

> <PUBCHEM_EXACT_MASS>
344.086449

> <PUBCHEM_MOLECULAR_FORMULA>
C14H20N2O4S2

> <PUBCHEM_MOLECULAR_WEIGHT>
344.4496

> <PUBCHEM_OPENEYE_CAN_SMILES>
CCCS(=O)(=O)C1=CN2C=CC=C(C2=C1S(=O)(=O)CCC)N

> <PUBCHEM_OPENEYE_ISO_SMILES>
CCCS(=O)(=O)C1=CN2C=CC=C(C2=C1S(=O)(=O)CCC)N

> <PUBCHEM_CACTVS_TPSA>
116

> <PUBCHEM_MONOISOTOPIC_WEIGHT>
344.086449

> <PUBCHEM_TOTAL_CHARGE>
0

> <PUBCHEM_HEAVY_ATOM_COUNT>
22

> <PUBCHEM_ATOM_DEF_STEREO_COUNT>
0

> <PUBCHEM_ATOM_UDEF_STEREO_COUNT>
0

> <PUBCHEM_BOND_DEF_STEREO_COUNT>
0

> <PUBCHEM_BOND_UDEF_STEREO_COUNT>
0

> <PUBCHEM_ISOTOPIC_ATOM_COUNT>
0

> <PUBCHEM_COMPONENT_COUNT>
1

> <PUBCHEM_CACTVS_TAUTO_COUNT>
1

> <PUBCHEM_COORDINATE_TYPE>
1
5
255

> <PUBCHEM_BONDANNOTATIONS>
10  12  8
11  15  8
15  19  8
18  20  8
19  20  8
7  11  8
7  12  8
7  18  8
9  10  8
9  11  8

$$$$

