17396166
  -OEChem-06241222553D

 42 44  0     0  0  0  0  0  0999 V2000
    0.4462    0.6807    0.6873 S   0  0  0  0  0  0  0  0  0  0  0  0
   -4.4064    0.2206   -1.8465 O   0  0  0  0  0  0  0  0  0  0  0  0
    7.8621    0.4062   -0.3060 O   0  0  0  0  0  0  0  0  0  0  0  0
   -2.3676   -0.8022    1.8137 O   0  0  0  0  0  0  0  0  0  0  0  0
    3.0837    1.1552    0.4584 N   0  0  0  0  0  0  0  0  0  0  0  0
   -5.7754    0.4424   -1.7598 N   0  0  0  0  0  0  0  0  0  0  0  0
   -2.5575   -0.3544   -0.4897 N   0  0  0  0  0  0  0  0  0  0  0  0
    2.5346   -0.9630    0.0685 N   0  0  0  0  0  0  0  0  0  0  0  0
   -7.4640    0.4106   -0.0104 C   0  0  0  0  0  0  0  0  0  0  0  0
   -6.0753    0.2530   -0.4717 C   0  0  0  0  0  0  0  0  0  0  0  0
   -8.0777   -0.8891    0.5639 C   0  0  0  0  0  0  0  0  0  0  0  0
   -7.6492    1.5530    1.0172 C   0  0  0  0  0  0  0  0  0  0  0  0
    4.2637    0.5178    0.1721 C   0  0  0  0  0  0  0  0  0  0  0  0
   -4.9470   -0.0868    0.2946 C   0  0  0  0  0  0  0  0  0  0  0  0
    3.8945   -0.8027   -0.0676 C   0  0  0  0  0  0  0  0  0  0  0  0
   -3.9245   -0.0937   -0.6169 C   0  0  0  0  0  0  0  0  0  0  0  0
    2.0806    0.2293    0.3839 C   0  0  0  0  0  0  0  0  0  0  0  0
    5.5821    0.9693    0.1043 C   0  0  0  0  0  0  0  0  0  0  0  0
    4.8862   -1.7424   -0.3958 C   0  0  0  0  0  0  0  0  0  0  0  0
    6.5564    0.0207   -0.2234 C   0  0  0  0  0  0  0  0  0  0  0  0
   -0.4151   -0.9020    0.4529 C   0  0  0  0  0  0  0  0  0  0  0  0
    6.2168   -1.3116   -0.4695 C   0  0  0  0  0  0  0  0  0  0  0  0
   -1.8958   -0.6888    0.6854 C   0  0  0  0  0  0  0  0  0  0  0  0
    8.1489    1.7778   -0.0447 C   0  0  0  0  0  0  0  0  0  0  0  0
   -8.0856    0.6803   -0.8767 H   0  0  0  0  0  0  0  0  0  0  0  0
   -7.5533   -1.2085    1.4713 H   0  0  0  0  0  0  0  0  0  0  0  0
   -8.0106   -1.7031   -0.1663 H   0  0  0  0  0  0  0  0  0  0  0  0
   -9.1339   -0.7427    0.8135 H   0  0  0  0  0  0  0  0  0  0  0  0
   -8.7078    1.6854    1.2642 H   0  0  0  0  0  0  0  0  0  0  0  0
   -7.2734    2.4997    0.6137 H   0  0  0  0  0  0  0  0  0  0  0  0
   -7.1053    1.3444    1.9451 H   0  0  0  0  0  0  0  0  0  0  0  0
   -4.8969   -0.2934    1.3532 H   0  0  0  0  0  0  0  0  0  0  0  0
    2.9741    2.1346    0.6844 H   0  0  0  0  0  0  0  0  0  0  0  0
    5.7786    2.0142    0.3058 H   0  0  0  0  0  0  0  0  0  0  0  0
    4.6324   -2.7798   -0.5888 H   0  0  0  0  0  0  0  0  0  0  0  0
   -2.0282   -0.2818   -1.3546 H   0  0  0  0  0  0  0  0  0  0  0  0
   -0.0515   -1.6425    1.1730 H   0  0  0  0  0  0  0  0  0  0  0  0
   -0.2349   -1.2885   -0.5556 H   0  0  0  0  0  0  0  0  0  0  0  0
    6.9920   -2.0310   -0.7232 H   0  0  0  0  0  0  0  0  0  0  0  0
    7.6743    2.4366   -0.7798 H   0  0  0  0  0  0  0  0  0  0  0  0
    7.8973    2.0539    0.9851 H   0  0  0  0  0  0  0  0  0  0  0  0
    9.2308    1.9078   -0.1532 H   0  0  0  0  0  0  0  0  0  0  0  0
  1 17  1  0  0  0  0
  1 21  1  0  0  0  0
  2  6  1  0  0  0  0
  2 16  1  0  0  0  0
  3 20  1  0  0  0  0
  3 24  1  0  0  0  0
  4 23  2  0  0  0  0
  5 13  1  0  0  0  0
  5 17  1  0  0  0  0
  5 33  1  0  0  0  0
  6 10  2  0  0  0  0
  7 16  1  0  0  0  0
  7 23  1  0  0  0  0
  7 36  1  0  0  0  0
  8 15  1  0  0  0  0
  8 17  2  0  0  0  0
  9 10  1  0  0  0  0
  9 11  1  0  0  0  0
  9 12  1  0  0  0  0
  9 25  1  0  0  0  0
 10 14  1  0  0  0  0
 11 26  1  0  0  0  0
 11 27  1  0  0  0  0
 11 28  1  0  0  0  0
 12 29  1  0  0  0  0
 12 30  1  0  0  0  0
 12 31  1  0  0  0  0
 13 15  2  0  0  0  0
 13 18  1  0  0  0  0
 14 16  2  0  0  0  0
 14 32  1  0  0  0  0
 15 19  1  0  0  0  0
 18 20  2  0  0  0  0
 18 34  1  0  0  0  0
 19 22  2  0  0  0  0
 19 35  1  0  0  0  0
 20 22  1  0  0  0  0
 21 23  1  0  0  0  0
 21 37  1  0  0  0  0
 21 38  1  0  0  0  0
 22 39  1  0  0  0  0
 24 40  1  0  0  0  0
 24 41  1  0  0  0  0
 24 42  1  0  0  0  0
M  END
> <PUBCHEM_COMPOUND_CID>
17396166

> <PUBCHEM_CONFORMER_RMSD>
1

> <PUBCHEM_CONFORMER_DIVERSEORDER>
1
80
89
30
121
19
122
11
40
50
8
77
130
53
84
63
23
107
31
119
55
126
133
93
29
71
120
67
81
100
97
57
38
103
6
118
25
111
117
32
27
54
13
91
14
112
74
98
108
58
73
61
15
92
105
28
59
51
72
127
114
75
2
78
95
12
9
3
79
4
66
101
16
131
26
18
104
20
90
33
125
94
83
65
110
124
7
102
39
87
5
10
45
47
86
35
37
113
99
109
116
24
17
135
52
21
48
123
46
69
96
68
106
88
85
129
115
60
132
62
44
49
76
56
43
36
82
34
134
22
64
128
42
41
70

> <PUBCHEM_MMFF94_PARTIAL_CHARGES>
28
1 -0.29
10 0.11
13 -0.15
14 -0.15
15 0.23
16 0.2
17 0.24
18 -0.15
19 -0.15
2 -0.02
20 0.08
21 0.29
22 -0.15
23 0.57
24 0.28
3 -0.36
32 0.15
33 0.27
34 0.15
35 0.15
36 0.37
39 0.15
4 -0.57
5 0.03
6 -0.41
7 -0.49
8 -0.57
9 0.18

> <PUBCHEM_EFFECTIVE_ROTOR_COUNT>
7

> <PUBCHEM_PHARMACOPHORE_FEATURES>
10
1 3 acceptor
1 4 acceptor
1 5 donor
1 6 acceptor
1 7 donor
3 5 8 17 cation
3 9 11 12 hydrophobe
5 2 6 10 14 16 rings
5 5 8 13 15 17 rings
6 13 15 18 19 20 22 rings

> <PUBCHEM_HEAVY_ATOM_COUNT>
24

> <PUBCHEM_ATOM_DEF_STEREO_COUNT>
0

> <PUBCHEM_ATOM_UDEF_STEREO_COUNT>
0

> <PUBCHEM_BOND_DEF_STEREO_COUNT>
0

> <PUBCHEM_BOND_UDEF_STEREO_COUNT>
0

> <PUBCHEM_ISOTOPIC_ATOM_COUNT>
0

> <PUBCHEM_COMPONENT_COUNT>
1

> <PUBCHEM_CACTVS_TAUTO_COUNT>
8

> <PUBCHEM_CONFORMER_ID>
010971C600000001

> <PUBCHEM_MMFF94_ENERGY>
44.6361

> <PUBCHEM_FEATURE_SELFOVERLAP>
50.85

> <PUBCHEM_SHAPE_FINGERPRINT>
10 15 16271924900243403640
10299344 5 17749109993605788535
106641 1 13686291375223790529
10835480 77 18340768144521630736
10883706 142 16702305637919941056
11135609 127 18199748043208336620
11315181 36 14634870821478381835
11638347 137 8862943887691711397
11646440 116 17632854243960776069
11719270 70 14418131833493742140
11724838 91 12319731466730788490
12082328 90 18333731334533356079
12236239 1 17167866361078574743
12730499 353 17988926703522700730
13073987 5 16558479693778337129
13177829 20 12535340199564171705
13533116 47 17386007316704879438
13964095 4 16443065011121308201
14123256 10 18334013891583498836
14251752 14 17167864197100736657
14251764 18 17894630366010706737
14251764 46 18202563973072603434
14933364 13 18412263947983283701
15119646 104 17313099803977652606
15183329 4 17894919555059793957
15510794 2 18131909356784821802
15690457 1 10375867463900920249
1577012 14 17603592928041332639
18006028 8 6338955560009407451
18335252 98 17704068495832782459
18608769 82 17703786994964883651
195137 175 17603297163571369153
20157964 124 18412262848809532390
20281389 69 16630531738887362828
21033648 29 17988085470375313712
21150785 3 17458062656090185344
21315759 40 12103843466665843892
221357 26 18408890658946651760
22224240 67 10879990254985325360
23198884 109 18333732429755259011
23559900 14 18261962838664679760
29717793 49 17385439925849608860
3004659 81 16081374033391545530
3545911 37 17775286071139037339
4073 2 18343016653741949754
4098825 35 18334294318430044345
4325135 7 15936406745300137405
504579 68 17240476988544598464
5283156 175 16732699476163862806
559249 180 15864079758824893277
67123 10 18408884019285570459
9953998 17 17632289083043066113

> <PUBCHEM_SHAPE_MULTIPOLES>
460.23
27.67
1.39
1.1
8.29
0.1
0.17
6.07
2.77
-1.69
-0.12
1.89
-0.02
0.06

> <PUBCHEM_SHAPE_SELFOVERLAP>
969.991

> <PUBCHEM_SHAPE_VOLUME>
262.5

> <PUBCHEM_COORDINATE_TYPE>
2
5
10

$$$$

