13234
  -OEChem-06261207552D

 27 27  0     1  0  0  0  0  0999 V2000
    3.8660    1.9400    0.0000 O   0  0  0  0  0  0  0  0  0  0  0  0
    2.1340    1.9400    0.0000 O   0  0  0  0  0  0  0  0  0  0  0  0
    3.0000    0.4400    0.0000 C   0  0  3  0  0  0  0  0  0  0  0  0
    4.0000    0.4400    0.0000 C   0  0  0  0  0  0  0  0  0  0  0  0
    3.0000   -0.5600    0.0000 C   0  0  0  0  0  0  0  0  0  0  0  0
    2.0000    0.4400    0.0000 C   0  0  0  0  0  0  0  0  0  0  0  0
    3.0000    1.4400    0.0000 C   0  0  0  0  0  0  0  0  0  0  0  0
    4.5000    1.3060    0.0000 C   0  0  0  0  0  0  0  0  0  0  0  0
    2.1340   -1.0600    0.0000 C   0  0  0  0  0  0  0  0  0  0  0  0
    3.8660   -1.0600    0.0000 C   0  0  0  0  0  0  0  0  0  0  0  0
    2.1340   -2.0600    0.0000 C   0  0  0  0  0  0  0  0  0  0  0  0
    3.8660   -2.0600    0.0000 C   0  0  0  0  0  0  0  0  0  0  0  0
    3.0000   -2.5600    0.0000 C   0  0  0  0  0  0  0  0  0  0  0  0
    3.8923   -0.1706    0.0000 H   0  0  0  0  0  0  0  0  0  0  0  0
    4.5826    0.2279    0.0000 H   0  0  0  0  0  0  0  0  0  0  0  0
    2.0000    1.0600    0.0000 H   0  0  0  0  0  0  0  0  0  0  0  0
    1.3800    0.4400    0.0000 H   0  0  0  0  0  0  0  0  0  0  0  0
    2.0000   -0.1800    0.0000 H   0  0  0  0  0  0  0  0  0  0  0  0
    5.0369    0.9960    0.0000 H   0  0  0  0  0  0  0  0  0  0  0  0
    4.8100    1.8430    0.0000 H   0  0  0  0  0  0  0  0  0  0  0  0
    3.9631    1.6160    0.0000 H   0  0  0  0  0  0  0  0  0  0  0  0
    1.5970   -0.7500    0.0000 H   0  0  0  0  0  0  0  0  0  0  0  0
    4.4030   -0.7500    0.0000 H   0  0  0  0  0  0  0  0  0  0  0  0
    1.5970   -2.3700    0.0000 H   0  0  0  0  0  0  0  0  0  0  0  0
    4.4030   -2.3700    0.0000 H   0  0  0  0  0  0  0  0  0  0  0  0
    3.0000   -3.1800    0.0000 H   0  0  0  0  0  0  0  0  0  0  0  0
    3.8660    2.5600    0.0000 H   0  0  0  0  0  0  0  0  0  0  0  0
  1  7  1  0  0  0  0
  1 27  1  0  0  0  0
  2  7  2  0  0  0  0
  3  4  1  0  0  0  0
  3  5  1  0  0  0  0
  3  6  1  0  0  0  0
  3  7  1  0  0  0  0
  4  8  1  0  0  0  0
  4 14  1  0  0  0  0
  4 15  1  0  0  0  0
  5  9  2  0  0  0  0
  5 10  1  0  0  0  0
  6 16  1  0  0  0  0
  6 17  1  0  0  0  0
  6 18  1  0  0  0  0
  8 19  1  0  0  0  0
  8 20  1  0  0  0  0
  8 21  1  0  0  0  0
  9 11  1  0  0  0  0
  9 22  1  0  0  0  0
 10 12  2  0  0  0  0
 10 23  1  0  0  0  0
 11 13  2  0  0  0  0
 11 24  1  0  0  0  0
 12 13  1  0  0  0  0
 12 25  1  0  0  0  0
 13 26  1  0  0  0  0
M  END
> <PUBCHEM_COMPOUND_CID>
13234

> <PUBCHEM_COMPOUND_CANONICALIZED>
1

> <PUBCHEM_CACTVS_COMPLEXITY>
183

> <PUBCHEM_CACTVS_HBOND_ACCEPTOR>
2

> <PUBCHEM_CACTVS_HBOND_DONOR>
1

> <PUBCHEM_CACTVS_ROTATABLE_BOND>
3

> <PUBCHEM_CACTVS_SUBSKEYS>
AAADccBwMAAAAAAAAAAAAAAAAAAAAAAAAAAwAAAAAAAAAAABAAAAGgAACAAADgCAmAAyCIAAAgCIAiDSCAACAAAgAAAIiAEAAIgIIDKAFRCAYAAkwAEIiAeIyOCPgAAAAAAAAAAAAAAAAAAAAAAAAAAAAA==

> <PUBCHEM_IUPAC_OPENEYE_NAME>
2-methyl-2-phenyl-butanoic acid

> <PUBCHEM_IUPAC_CAS_NAME>
2-methyl-2-phenylbutanoic acid

> <PUBCHEM_IUPAC_NAME>
2-methyl-2-phenylbutanoic acid

> <PUBCHEM_IUPAC_SYSTEMATIC_NAME>
2-methyl-2-phenyl-butanoic acid

> <PUBCHEM_IUPAC_TRADITIONAL_NAME>
2-methyl-2-phenyl-butyric acid

> <PUBCHEM_IUPAC_INCHI>
InChI=1S/C11H14O2/c1-3-11(2,10(12)13)9-7-5-4-6-8-9/h4-8H,3H2,1-2H3,(H,12,13)

> <PUBCHEM_IUPAC_INCHIKEY>
IDZLDUPVMGWZLD-UHFFFAOYSA-N

> <PUBCHEM_XLOGP3_AA>
2.7

> <PUBCHEM_EXACT_MASS>
178.09938

> <PUBCHEM_MOLECULAR_FORMULA>
C11H14O2

> <PUBCHEM_MOLECULAR_WEIGHT>
178.22766

> <PUBCHEM_OPENEYE_CAN_SMILES>
CCC(C)(C1=CC=CC=C1)C(=O)O

> <PUBCHEM_OPENEYE_ISO_SMILES>
CCC(C)(C1=CC=CC=C1)C(=O)O

> <PUBCHEM_CACTVS_TPSA>
37.3

> <PUBCHEM_MONOISOTOPIC_WEIGHT>
178.09938

> <PUBCHEM_TOTAL_CHARGE>
0

> <PUBCHEM_HEAVY_ATOM_COUNT>
13

> <PUBCHEM_ATOM_DEF_STEREO_COUNT>
0

> <PUBCHEM_ATOM_UDEF_STEREO_COUNT>
1

> <PUBCHEM_BOND_DEF_STEREO_COUNT>
0

> <PUBCHEM_BOND_UDEF_STEREO_COUNT>
0

> <PUBCHEM_ISOTOPIC_ATOM_COUNT>
0

> <PUBCHEM_COMPONENT_COUNT>
1

> <PUBCHEM_CACTVS_TAUTO_COUNT>
1

> <PUBCHEM_COORDINATE_TYPE>
1
5
255

> <PUBCHEM_BONDANNOTATIONS>
10  12  8
11  13  8
12  13  8
3  6  3
5  10  8
5  9  8
9  11  8

$$$$

