12945
  -OEChem-06261207342D

 49 49  0     1  0  0  0  0  0999 V2000
    1.5978    1.3100    0.0000 Hg  0  0  0  0  0  0  0  0  0  0  0  0
    1.5978    3.3100    0.0000 O   0  0  0  0  0  0  0  0  0  0  0  0
    5.0900    4.5888    0.0000 O   0  0  0  0  0  0  0  0  0  0  0  0
    1.5698    4.5888    0.0000 O   0  0  0  0  0  0  0  0  0  0  0  0
    1.5978    0.3100    0.0000 O   0  0  0  0  0  0  0  0  0  0  0  0
    2.2690   13.0837    0.0000 O   0  0  0  0  0  0  0  0  0  0  0  0
    0.5369   10.0837    0.0000 O   0  0  0  0  0  0  0  0  0  0  0  0
    3.3299    4.3100    0.0000 N   0  0  0  0  0  0  0  0  0  0  0  0
    2.2690   10.0837    0.0000 N   0  0  0  0  0  0  0  0  0  0  0  0
    1.4030   11.5837    0.0000 N   0  0  0  0  0  0  0  0  0  0  0  0
    4.0812   11.8884    0.0000 N   0  0  0  0  0  0  0  0  0  0  0  0
    4.0812   10.2790    0.0000 N   0  0  0  0  0  0  0  0  0  0  0  0
    3.3299    3.3100    0.0000 C   0  0  0  0  0  0  0  0  0  0  0  0
    2.4639    2.8100    0.0000 C   0  0  3  0  0  0  0  0  0  0  0  0
    3.8299    5.8488    0.0000 C   0  0  0  0  0  0  0  0  0  0  0  0
    2.8299    5.8488    0.0000 C   0  0  0  0  0  0  0  0  0  0  0  0
    4.1389    4.8978    0.0000 C   0  0  0  0  0  0  0  0  0  0  0  0
    2.5209    4.8978    0.0000 C   0  0  0  0  0  0  0  0  0  0  0  0
    2.4639    1.8100    0.0000 C   0  0  0  0  0  0  0  0  0  0  0  0
    3.1350   10.5837    0.0000 C   0  0  0  0  0  0  0  0  0  0  0  0
    3.1350   11.5837    0.0000 C   0  0  0  0  0  0  0  0  0  0  0  0
    2.2690   12.0837    0.0000 C   0  0  0  0  0  0  0  0  0  0  0  0
    1.4030   10.5837    0.0000 C   0  0  0  0  0  0  0  0  0  0  0  0
    0.7318    2.8100    0.0000 C   0  0  0  0  0  0  0  0  0  0  0  0
    2.2690    9.0837    0.0000 C   0  0  0  0  0  0  0  0  0  0  0  0
    0.5369   12.0837    0.0000 C   0  0  0  0  0  0  0  0  0  0  0  0
    4.6648   11.0837    0.0000 C   0  0  0  0  0  0  0  0  0  0  0  0
    3.5419    2.7274    0.0000 H   0  0  0  0  0  0  0  0  0  0  0  0
    3.9405    3.4177    0.0000 H   0  0  0  0  0  0  0  0  0  0  0  0
    2.4639    3.6600    0.0000 H   0  0  0  0  0  0  0  0  0  0  0  0
    4.4363    5.9778    0.0000 H   0  0  0  0  0  0  0  0  0  0  0  0
    3.7651    6.4654    0.0000 H   0  0  0  0  0  0  0  0  0  0  0  0
    2.8947    6.4654    0.0000 H   0  0  0  0  0  0  0  0  0  0  0  0
    2.2234    5.9778    0.0000 H   0  0  0  0  0  0  0  0  0  0  0  0
    2.6759    1.2274    0.0000 H   0  0  0  0  0  0  0  0  0  0  0  0
    3.0744    1.9177    0.0000 H   0  0  0  0  0  0  0  0  0  0  0  0
    0.4218    3.3469    0.0000 H   0  0  0  0  0  0  0  0  0  0  0  0
    0.1949    2.5000    0.0000 H   0  0  0  0  0  0  0  0  0  0  0  0
    1.0418    2.2731    0.0000 H   0  0  0  0  0  0  0  0  0  0  0  0
    4.2738   12.4777    0.0000 H   0  0  0  0  0  0  0  0  0  0  0  0
    1.6490    9.0837    0.0000 H   0  0  0  0  0  0  0  0  0  0  0  0
    2.2690    8.4637    0.0000 H   0  0  0  0  0  0  0  0  0  0  0  0
    2.8890    9.0837    0.0000 H   0  0  0  0  0  0  0  0  0  0  0  0
    0.8469   12.6206    0.0000 H   0  0  0  0  0  0  0  0  0  0  0  0
    0.0000   12.3937    0.0000 H   0  0  0  0  0  0  0  0  0  0  0  0
    0.2269   11.5468    0.0000 H   0  0  0  0  0  0  0  0  0  0  0  0
    5.2848   11.0837    0.0000 H   0  0  0  0  0  0  0  0  0  0  0  0
    1.0609    0.0000    0.0000 H   0  0  0  0  0  0  0  0  0  0  0  0
    2.1348    0.0000    0.0000 H   0  0  0  0  0  0  0  0  0  0  0  0
  1 19  1  0  0  0  0
  2 14  1  0  0  0  0
  2 24  1  0  0  0  0
  3 17  2  0  0  0  0
  4 18  2  0  0  0  0
  5 48  1  0  0  0  0
  5 49  1  0  0  0  0
  6 22  2  0  0  0  0
  7 23  2  0  0  0  0
  8 13  1  0  0  0  0
  8 17  1  0  0  0  0
  8 18  1  0  0  0  0
  9 20  1  0  0  0  0
  9 23  1  0  0  0  0
  9 25  1  0  0  0  0
 10 22  1  0  0  0  0
 10 23  1  0  0  0  0
 10 26  1  0  0  0  0
 11 21  1  0  0  0  0
 11 27  1  0  0  0  0
 11 40  1  0  0  0  0
 12 20  1  0  0  0  0
 12 27  2  0  0  0  0
 13 14  1  0  0  0  0
 13 28  1  0  0  0  0
 13 29  1  0  0  0  0
 14 19  1  0  0  0  0
 14 30  1  0  0  0  0
 15 16  1  0  0  0  0
 15 17  1  0  0  0  0
 15 31  1  0  0  0  0
 15 32  1  0  0  0  0
 16 18  1  0  0  0  0
 16 33  1  0  0  0  0
 16 34  1  0  0  0  0
 19 35  1  0  0  0  0
 19 36  1  0  0  0  0
 20 21  2  0  0  0  0
 21 22  1  0  0  0  0
 24 37  1  0  0  0  0
 24 38  1  0  0  0  0
 24 39  1  0  0  0  0
 25 41  1  0  0  0  0
 25 42  1  0  0  0  0
 25 43  1  0  0  0  0
 26 44  1  0  0  0  0
 26 45  1  0  0  0  0
 26 46  1  0  0  0  0
 27 47  1  0  0  0  0
M  END
> <PUBCHEM_COMPOUND_CID>
12945

> <PUBCHEM_COMPOUND_CANONICALIZED>
1

> <PUBCHEM_CACTVS_COMPLEXITY>
473

> <PUBCHEM_CACTVS_HBOND_ACCEPTOR>
7

> <PUBCHEM_CACTVS_HBOND_DONOR>
2

> <PUBCHEM_CACTVS_ROTATABLE_BOND>
5

> <PUBCHEM_CACTVS_SUBSKEYS>
AAADceBzuAAAAAAAAAAAAQAAAAAAAWLAAAAsAAAAAAAAAFgBgAAAHgAQCAAACBzhlgYHsBfJlACoAQdxdACAgC2XEKABUYGoVECCSBhAyCAVAIgIByLQAGAFAAAAAAAAAAAAAAAAAAAAAAAAAAAAAAAAAA==

> <PUBCHEM_IUPAC_OPENEYE_NAME>
1,3-dimethyl-7H-purine-2,6-dione; [3-(2,5-dioxopyrrolidin-1-yl)-2-methoxy-propyl]mercury; hydrate

> <PUBCHEM_IUPAC_CAS_NAME>
1,3-dimethyl-7H-purine-2,6-dione; [3-(2,5-dioxo-1-pyrrolidinyl)-2-methoxypropyl]mercury; hydrate

> <PUBCHEM_IUPAC_NAME>
1,3-dimethyl-7H-purine-2,6-dione; [3-(2,5-dioxopyrrolidin-1-yl)-2-methoxypropyl]mercury; hydrate

> <PUBCHEM_IUPAC_SYSTEMATIC_NAME>
[3-[2,5-bis(oxidanylidene)pyrrolidin-1-yl]-2-methoxy-propyl]mercury; 1,3-dimethyl-7H-purine-2,6-dione; hydrate

> <PUBCHEM_IUPAC_TRADITIONAL_NAME>
(2-methoxy-3-succinimido-propyl)mercury; theophylline; hydrate

> <PUBCHEM_IUPAC_INCHI>
InChI=1S/C8H12NO3.C7H8N4O2.Hg.H2O/c1-6(12-2)5-9-7(10)3-4-8(9)11;1-10-5-4(8-3-9-5)6(12)11(2)7(10)13;;/h6H,1,3-5H2,2H3;3H,1-2H3,(H,8,9);;1H2

> <PUBCHEM_IUPAC_INCHIKEY>
JYWRYZOMVPVVTN-UHFFFAOYSA-N

> <PUBCHEM_EXACT_MASS>
570.127651

> <PUBCHEM_MOLECULAR_FORMULA>
C15H22HgN5O6

> <PUBCHEM_MOLECULAR_WEIGHT>
568.95508

> <PUBCHEM_OPENEYE_CAN_SMILES>
CN1C2=C(C(=O)N(C1=O)C)NC=N2.COC(CN1C(=O)CCC1=O)C[Hg].O

> <PUBCHEM_OPENEYE_ISO_SMILES>
CN1C2=C(C(=O)N(C1=O)C)NC=N2.COC(CN1C(=O)CCC1=O)C[Hg].O

> <PUBCHEM_CACTVS_TPSA>
117

> <PUBCHEM_MONOISOTOPIC_WEIGHT>
570.127651

> <PUBCHEM_TOTAL_CHARGE>
0

> <PUBCHEM_HEAVY_ATOM_COUNT>
27

> <PUBCHEM_ATOM_DEF_STEREO_COUNT>
0

> <PUBCHEM_ATOM_UDEF_STEREO_COUNT>
1

> <PUBCHEM_BOND_DEF_STEREO_COUNT>
0

> <PUBCHEM_BOND_UDEF_STEREO_COUNT>
0

> <PUBCHEM_ISOTOPIC_ATOM_COUNT>
0

> <PUBCHEM_COMPONENT_COUNT>
3

> <PUBCHEM_CACTVS_TAUTO_COUNT>
12

> <PUBCHEM_NONSTANDARDBOND>
1  5  6

> <PUBCHEM_COORDINATE_TYPE>
1
5
255

> <PUBCHEM_BONDANNOTATIONS>
10  22  8
10  23  8
11  21  8
11  27  8
12  20  8
12  27  8
14  30  3
20  21  8
21  22  8
9  20  8
9  23  8

$$$$

