11969
  -OEChem-06261206213D

 19 19  0     0  0  0  0  0  0999 V2000
   -0.6052    2.5342   -0.1044 Cl  0  0  0  0  0  0  0  0  0  0  0  0
    0.6986   -0.0554    0.6912 O   0  0  0  0  0  0  0  0  0  0  0  0
    3.8602   -0.8479   -0.8052 O   0  0  0  0  0  0  0  0  0  0  0  0
    3.2197    0.9461    0.4433 O   0  0  0  0  0  0  0  0  0  0  0  0
   -0.6164   -0.1487    0.3439 C   0  0  0  0  0  0  0  0  0  0  0  0
   -1.3429    0.9759   -0.0472 C   0  0  0  0  0  0  0  0  0  0  0  0
   -1.2337   -1.3989    0.3833 C   0  0  0  0  0  0  0  0  0  0  0  0
    1.6274   -0.8124   -0.0816 C   0  0  0  0  0  0  0  0  0  0  0  0
   -2.6869    0.8503   -0.3988 C   0  0  0  0  0  0  0  0  0  0  0  0
   -2.5777   -1.5244    0.0317 C   0  0  0  0  0  0  0  0  0  0  0  0
   -3.3043   -0.3999   -0.3592 C   0  0  0  0  0  0  0  0  0  0  0  0
    2.9612   -0.1188   -0.0971 C   0  0  0  0  0  0  0  0  0  0  0  0
   -0.6841   -2.2832    0.6941 H   0  0  0  0  0  0  0  0  0  0  0  0
    1.7494   -1.7978    0.3797 H   0  0  0  0  0  0  0  0  0  0  0  0
    1.2838   -0.9104   -1.1185 H   0  0  0  0  0  0  0  0  0  0  0  0
   -3.2668    1.7171   -0.7055 H   0  0  0  0  0  0  0  0  0  0  0  0
   -3.0591   -2.4975    0.0643 H   0  0  0  0  0  0  0  0  0  0  0  0
   -4.3509   -0.4977   -0.6325 H   0  0  0  0  0  0  0  0  0  0  0  0
    4.7413   -0.4175   -0.8312 H   0  0  0  0  0  0  0  0  0  0  0  0
  1  6  1  0  0  0  0
  2  5  1  0  0  0  0
  2  8  1  0  0  0  0
  3 12  1  0  0  0  0
  3 19  1  0  0  0  0
  4 12  2  0  0  0  0
  5  6  1  0  0  0  0
  5  7  2  0  0  0  0
  6  9  2  0  0  0  0
  7 10  1  0  0  0  0
  7 13  1  0  0  0  0
  8 12  1  0  0  0  0
  8 14  1  0  0  0  0
  8 15  1  0  0  0  0
  9 11  1  0  0  0  0
  9 16  1  0  0  0  0
 10 11  2  0  0  0  0
 10 17  1  0  0  0  0
 11 18  1  0  0  0  0
M  END
> <PUBCHEM_COMPOUND_CID>
11969

> <PUBCHEM_CONFORMER_RMSD>
0.6

> <PUBCHEM_CONFORMER_DIVERSEORDER>
1
21
8
22
2
24
19
25
14
15
23
10
16
13
12
4
20
26
3
11
9
17
7
18
5
6

> <PUBCHEM_MMFF94_PARTIAL_CHARGES>
17
1 -0.18
10 -0.15
11 -0.15
12 0.66
13 0.15
16 0.15
17 0.15
18 0.15
19 0.5
2 -0.36
3 -0.65
4 -0.57
5 0.08
6 0.18
7 -0.15
8 0.34
9 -0.15

> <PUBCHEM_EFFECTIVE_ROTOR_COUNT>
3

> <PUBCHEM_PHARMACOPHORE_FEATURES>
5
1 2 acceptor
1 3 acceptor
1 4 acceptor
3 3 4 12 anion
6 5 6 7 9 10 11 rings

> <PUBCHEM_HEAVY_ATOM_COUNT>
12

> <PUBCHEM_ATOM_DEF_STEREO_COUNT>
0

> <PUBCHEM_ATOM_UDEF_STEREO_COUNT>
0

> <PUBCHEM_BOND_DEF_STEREO_COUNT>
0

> <PUBCHEM_BOND_UDEF_STEREO_COUNT>
0

> <PUBCHEM_ISOTOPIC_ATOM_COUNT>
0

> <PUBCHEM_COMPONENT_COUNT>
1

> <PUBCHEM_CACTVS_TAUTO_COUNT>
1

> <PUBCHEM_CONFORMER_ID>
00002EC100000001

> <PUBCHEM_MMFF94_ENERGY>
30.2293

> <PUBCHEM_FEATURE_SELFOVERLAP>
25.434

> <PUBCHEM_SHAPE_FINGERPRINT>
12032990 46 18411132494425491939
12716758 59 18340770428615829803
12897270 3 18410012152090103786
12932764 1 18272650190302046442
13024252 1 17346874559774050075
14325111 11 18410857672199966522
14911166 2 18341625802229950271
15775835 57 17631732797655060932
16945 1 18342751710425936435
17134986 127 17261314112064012837
20201158 50 18187644730023917614
20828058 34 18272652384740210135
20871999 31 18341342132377271407
21501502 16 18193839481529633026
21524375 3 17481144930735042625
22213442 358 18265617567838605847
22802520 49 18189609608815811702
23402539 116 18338248136114806190
23557571 272 18335129895495236716
23559900 14 18337116752267955922
2748010 2 18196384623657409785
528716 315 18343578534237418855
6333449 129 18410294726567769303
7364860 26 17975979756795540305
8030462 33 17988922310092559354

> <PUBCHEM_SHAPE_MULTIPOLES>
231.22
5.78
1.93
0.73
4.55
1.07
-0.02
-1.22
-1.08
-0.82
0
0.12
-0.03
0.38

> <PUBCHEM_SHAPE_SELFOVERLAP>
468.417

> <PUBCHEM_SHAPE_VOLUME>
135

> <PUBCHEM_COORDINATE_TYPE>
2
5
10

$$$$

