13939
  -OEChem-06241222412D

 21 20  0     0  0  0  0  0  0999 V2000
    2.5369   -0.0600    0.0000 S   0  0  0  0  0  0  0  0  0  0  0  0
    7.7331   -1.0600    0.0000 O   0  0  0  0  0  0  0  0  0  0  0  0
    5.1350    0.4400    0.0000 N   0  0  0  0  0  0  0  0  0  0  0  0
    8.5991    0.4400    0.0000 N   0  0  0  0  0  0  0  0  0  0  0  0
    6.0010   -0.0600    0.0000 C   0  0  0  0  0  0  0  0  0  0  0  0
    4.2690   -0.0600    0.0000 C   0  0  0  0  0  0  0  0  0  0  0  0
    6.8671    0.4400    0.0000 C   0  0  0  0  0  0  0  0  0  0  0  0
    3.4030    0.4400    0.0000 C   0  0  0  0  0  0  0  0  0  0  0  0
    7.7331   -0.0600    0.0000 C   0  0  0  0  0  0  0  0  0  0  0  0
    5.6025   -0.5349    0.0000 H   0  0  0  0  0  0  0  0  0  0  0  0
    6.3996   -0.5349    0.0000 H   0  0  0  0  0  0  0  0  0  0  0  0
    3.8705   -0.5349    0.0000 H   0  0  0  0  0  0  0  0  0  0  0  0
    4.6675   -0.5349    0.0000 H   0  0  0  0  0  0  0  0  0  0  0  0
    7.2656    0.9149    0.0000 H   0  0  0  0  0  0  0  0  0  0  0  0
    6.4685    0.9149    0.0000 H   0  0  0  0  0  0  0  0  0  0  0  0
    5.1350    1.0600    0.0000 H   0  0  0  0  0  0  0  0  0  0  0  0
    3.8015    0.9149    0.0000 H   0  0  0  0  0  0  0  0  0  0  0  0
    3.0044    0.9149    0.0000 H   0  0  0  0  0  0  0  0  0  0  0  0
    2.0000    0.2500    0.0000 H   0  0  0  0  0  0  0  0  0  0  0  0
    9.1360    0.1300    0.0000 H   0  0  0  0  0  0  0  0  0  0  0  0
    8.5991    1.0600    0.0000 H   0  0  0  0  0  0  0  0  0  0  0  0
  1  8  1  0  0  0  0
  1 19  1  0  0  0  0
  2  9  2  0  0  0  0
  3  5  1  0  0  0  0
  3  6  1  0  0  0  0
  3 16  1  0  0  0  0
  4  9  1  0  0  0  0
  4 20  1  0  0  0  0
  4 21  1  0  0  0  0
  5  7  1  0  0  0  0
  5 10  1  0  0  0  0
  5 11  1  0  0  0  0
  6  8  1  0  0  0  0
  6 12  1  0  0  0  0
  6 13  1  0  0  0  0
  7  9  1  0  0  0  0
  7 14  1  0  0  0  0
  7 15  1  0  0  0  0
  8 17  1  0  0  0  0
  8 18  1  0  0  0  0
M  END
> <PUBCHEM_COMPOUND_CID>
13939

> <PUBCHEM_COMPOUND_CANONICALIZED>
1

> <PUBCHEM_CACTVS_COMPLEXITY>
87

> <PUBCHEM_CACTVS_HBOND_ACCEPTOR>
3

> <PUBCHEM_CACTVS_HBOND_DONOR>
3

> <PUBCHEM_CACTVS_ROTATABLE_BOND>
5

> <PUBCHEM_CACTVS_SUBSKEYS>
AAADccBjIABAAAAAAAAAAAAAAAAAAAAAAAAAAAAAAAAAAAAAAAAAHgQQAAAACADFwASAAALAAAQIAAEQEAAAAAAAAAAAAIEIAAAAAAgAQAAEAAAAEACAAAAAAAAAAAAAAAAAAAAAAAAAAAAAAAAAAAAAAA==

> <PUBCHEM_IUPAC_OPENEYE_NAME>
3-(2-sulfanylethylamino)propanamide

> <PUBCHEM_IUPAC_CAS_NAME>
3-(2-mercaptoethylamino)propanamide

> <PUBCHEM_IUPAC_NAME>
3-(2-sulfanylethylamino)propanamide

> <PUBCHEM_IUPAC_SYSTEMATIC_NAME>
3-(2-sulfanylethylamino)propanamide

> <PUBCHEM_IUPAC_TRADITIONAL_NAME>
3-(2-mercaptoethylamino)propionamide

> <PUBCHEM_IUPAC_INCHI>
InChI=1S/C5H12N2OS/c6-5(8)1-2-7-3-4-9/h7,9H,1-4H2,(H2,6,8)

> <PUBCHEM_IUPAC_INCHIKEY>
NJEUWMNDELODJE-UHFFFAOYSA-N

> <PUBCHEM_XLOGP3_AA>
-1.1

> <PUBCHEM_EXACT_MASS>
148.067034

> <PUBCHEM_MOLECULAR_FORMULA>
C5H12N2OS

> <PUBCHEM_MOLECULAR_WEIGHT>
148.22658

> <PUBCHEM_OPENEYE_CAN_SMILES>
C(CNCCS)C(=O)N

> <PUBCHEM_OPENEYE_ISO_SMILES>
C(CNCCS)C(=O)N

> <PUBCHEM_CACTVS_TPSA>
56.1

> <PUBCHEM_MONOISOTOPIC_WEIGHT>
148.067034

> <PUBCHEM_TOTAL_CHARGE>
0

> <PUBCHEM_HEAVY_ATOM_COUNT>
9

> <PUBCHEM_ATOM_DEF_STEREO_COUNT>
0

> <PUBCHEM_ATOM_UDEF_STEREO_COUNT>
0

> <PUBCHEM_BOND_DEF_STEREO_COUNT>
0

> <PUBCHEM_BOND_UDEF_STEREO_COUNT>
0

> <PUBCHEM_ISOTOPIC_ATOM_COUNT>
0

> <PUBCHEM_COMPONENT_COUNT>
1

> <PUBCHEM_CACTVS_TAUTO_COUNT>
3

> <PUBCHEM_COORDINATE_TYPE>
1
5
255

$$$$

