13752
  -OEChem-06241222402D

 27 28  0     1  0  0  0  0  0999 V2000
    2.2788   -2.4139    0.0000 S   0  0  0  0  0  0  0  0  0  0  0  0
    2.0000   -4.1739    0.0000 S   0  0  0  0  0  0  0  0  0  0  0  0
    4.8479   -2.1048    0.0000 O   0  0  0  0  0  0  0  0  0  0  0  0
    4.8198    4.1739    0.0000 O   0  5  0  0  0  0  0  0  0  0  0  0
    3.0878    4.1739    0.0000 O   0  0  0  0  0  0  0  0  0  0  0  0
    3.5878   -3.3649    0.0000 N   0  0  0  0  0  0  0  0  0  0  0  0
    3.0878   -0.8261    0.0000 N   0  0  0  0  0  0  0  0  0  0  0  0
    3.9538   -0.3261    0.0000 N   0  0  0  0  0  0  0  0  0  0  0  0
    3.9538    3.6739    0.0000 N   0  3  0  0  0  0  0  0  0  0  0  0
    3.0878   -1.8261    0.0000 C   0  0  3  0  0  0  0  0  0  0  0  0
    3.8968   -2.4139    0.0000 C   0  0  0  0  0  0  0  0  0  0  0  0
    2.5878   -3.3649    0.0000 C   0  0  0  0  0  0  0  0  0  0  0  0
    4.1756   -4.1739    0.0000 C   0  0  0  0  0  0  0  0  0  0  0  0
    3.9538    0.6739    0.0000 C   0  0  0  0  0  0  0  0  0  0  0  0
    4.8198    1.1739    0.0000 C   0  0  0  0  0  0  0  0  0  0  0  0
    3.0878    1.1739    0.0000 C   0  0  0  0  0  0  0  0  0  0  0  0
    3.9538    2.6739    0.0000 C   0  0  0  0  0  0  0  0  0  0  0  0
    4.8198    2.1739    0.0000 C   0  0  0  0  0  0  0  0  0  0  0  0
    3.0878    2.1739    0.0000 C   0  0  0  0  0  0  0  0  0  0  0  0
    3.6402   -1.5446    0.0000 H   0  0  0  0  0  0  0  0  0  0  0  0
    3.6740   -4.5384    0.0000 H   0  0  0  0  0  0  0  0  0  0  0  0
    4.5400   -4.6755    0.0000 H   0  0  0  0  0  0  0  0  0  0  0  0
    4.6772   -3.8095    0.0000 H   0  0  0  0  0  0  0  0  0  0  0  0
    5.3568    0.8639    0.0000 H   0  0  0  0  0  0  0  0  0  0  0  0
    2.5508    0.8639    0.0000 H   0  0  0  0  0  0  0  0  0  0  0  0
    5.3568    2.4839    0.0000 H   0  0  0  0  0  0  0  0  0  0  0  0
    2.5508    2.4839    0.0000 H   0  0  0  0  0  0  0  0  0  0  0  0
  1 10  1  0  0  0  0
  1 12  1  0  0  0  0
  2 12  2  0  0  0  0
  3 11  2  0  0  0  0
  4  9  1  0  0  0  0
  5  9  2  0  0  0  0
  6 11  1  0  0  0  0
  6 12  1  0  0  0  0
  6 13  1  0  0  0  0
  7  8  2  0  0  0  0
  7 10  1  0  0  0  0
  8 14  1  0  0  0  0
  9 17  1  0  0  0  0
 10 11  1  0  0  0  0
 10 20  1  0  0  0  0
 13 21  1  0  0  0  0
 13 22  1  0  0  0  0
 13 23  1  0  0  0  0
 14 15  2  0  0  0  0
 14 16  1  0  0  0  0
 15 18  1  0  0  0  0
 15 24  1  0  0  0  0
 16 19  2  0  0  0  0
 16 25  1  0  0  0  0
 17 18  2  0  0  0  0
 17 19  1  0  0  0  0
 18 26  1  0  0  0  0
 19 27  1  0  0  0  0
M  CHG  2   4  -1   9   1
M  END
> <PUBCHEM_COMPOUND_CID>
13752

> <PUBCHEM_COMPOUND_CANONICALIZED>
1

> <PUBCHEM_CACTVS_COMPLEXITY>
429

> <PUBCHEM_CACTVS_HBOND_ACCEPTOR>
7

> <PUBCHEM_CACTVS_HBOND_DONOR>
0

> <PUBCHEM_CACTVS_ROTATABLE_BOND>
2

> <PUBCHEM_CACTVS_SUBSKEYS>
AAADccBzsABgAAAAAAAAAAAAAAAAAWAAAAAwAAAAAAAAAAABAAAAHgQMAAAACAjF0ASywIMQQAiPACVSUwCCAABgAhgoiACIZIoIYCKAkZGQIABgggAIyAcQAAAAAACAAAAAAAAAAQAAAAAAAAAAAAAAAA==

> <PUBCHEM_IUPAC_OPENEYE_NAME>
3-methyl-5-(4-nitrophenyl)azo-2-thioxo-thiazolidin-4-one

> <PUBCHEM_IUPAC_CAS_NAME>
3-methyl-5-(4-nitrophenyl)azo-2-sulfanylidene-4-thiazolidinone

> <PUBCHEM_IUPAC_NAME>
3-methyl-5-[(4-nitrophenyl)diazenyl]-2-sulfanylidene-1,3-thiazolidin-4-one

> <PUBCHEM_IUPAC_SYSTEMATIC_NAME>
3-methyl-5-[(4-nitrophenyl)diazenyl]-2-sulfanylidene-1,3-thiazolidin-4-one

> <PUBCHEM_IUPAC_TRADITIONAL_NAME>
3-methyl-5-(4-nitrophenyl)azo-2-thioxo-thiazolidin-4-one

> <PUBCHEM_IUPAC_INCHI>
InChI=1S/C10H8N4O3S2/c1-13-9(15)8(19-10(13)18)12-11-6-2-4-7(5-3-6)14(16)17/h2-5,8H,1H3

> <PUBCHEM_IUPAC_INCHIKEY>
HHLAJTWCKSBJFA-UHFFFAOYSA-N

> <PUBCHEM_XLOGP3_AA>
2.7

> <PUBCHEM_EXACT_MASS>
296.003782

> <PUBCHEM_MOLECULAR_FORMULA>
C10H8N4O3S2

> <PUBCHEM_MOLECULAR_WEIGHT>
296.32552

> <PUBCHEM_OPENEYE_CAN_SMILES>
CN1C(=O)C(SC1=S)N=NC2=CC=C(C=C2)[N+](=O)[O-]

> <PUBCHEM_OPENEYE_ISO_SMILES>
CN1C(=O)C(SC1=S)N=NC2=CC=C(C=C2)[N+](=O)[O-]

> <PUBCHEM_CACTVS_TPSA>
148

> <PUBCHEM_MONOISOTOPIC_WEIGHT>
296.003782

> <PUBCHEM_TOTAL_CHARGE>
0

> <PUBCHEM_HEAVY_ATOM_COUNT>
19

> <PUBCHEM_ATOM_DEF_STEREO_COUNT>
0

> <PUBCHEM_ATOM_UDEF_STEREO_COUNT>
1

> <PUBCHEM_BOND_DEF_STEREO_COUNT>
0

> <PUBCHEM_BOND_UDEF_STEREO_COUNT>
0

> <PUBCHEM_ISOTOPIC_ATOM_COUNT>
0

> <PUBCHEM_COMPONENT_COUNT>
1

> <PUBCHEM_CACTVS_TAUTO_COUNT>
3

> <PUBCHEM_COORDINATE_TYPE>
1
5
255

> <PUBCHEM_BONDANNOTATIONS>
14  15  8
14  16  8
15  18  8
16  19  8
17  18  8
17  19  8
10  7  3

$$$$

