11144
  -OEChem-06261205202D

148144  0     0  0  0  0  0  0999 V2000
   15.8564    5.5000    0.0000 Al  0  1  0  0  0  0  0  0  0  0  0  0
   16.7224    6.0000    0.0000 O   0  5  0  0  0  0  0  0  0  0  0  0
   14.9904    6.0000    0.0000 O   0  5  0  0  0  0  0  0  0  0  0  0
   15.8564    4.5000    0.0000 O   0  5  0  0  0  0  0  0  0  0  0  0
   17.5885    4.5000    0.0000 O   0  0  0  0  0  0  0  0  0  0  0  0
   15.8564    7.5000    0.0000 O   0  0  0  0  0  0  0  0  0  0  0  0
   14.1244    4.5000    0.0000 O   0  0  0  0  0  0  0  0  0  0  0  0
   24.5167    5.5000    0.0000 C   0  0  0  0  0  0  0  0  0  0  0  0
    8.0622    7.0000    0.0000 C   0  0  0  0  0  0  0  0  0  0  0  0
   11.5263   -2.0000    0.0000 C   0  0  0  0  0  0  0  0  0  0  0  0
   23.6506    6.0000    0.0000 C   0  0  0  0  0  0  0  0  0  0  0  0
    8.9282    7.5000    0.0000 C   0  0  0  0  0  0  0  0  0  0  0  0
   12.3923   -1.5000    0.0000 C   0  0  0  0  0  0  0  0  0  0  0  0
   25.3827    6.0000    0.0000 C   0  0  0  0  0  0  0  0  0  0  0  0
    7.1962    7.5000    0.0000 C   0  0  0  0  0  0  0  0  0  0  0  0
   11.5263   -3.0000    0.0000 C   0  0  0  0  0  0  0  0  0  0  0  0
   22.7846    5.5000    0.0000 C   0  0  0  0  0  0  0  0  0  0  0  0
    9.7942    7.0000    0.0000 C   0  0  0  0  0  0  0  0  0  0  0  0
   12.3923   -0.5000    0.0000 C   0  0  0  0  0  0  0  0  0  0  0  0
   26.2487    5.5000    0.0000 C   0  0  0  0  0  0  0  0  0  0  0  0
    6.3301    7.0000    0.0000 C   0  0  0  0  0  0  0  0  0  0  0  0
   10.6603   -3.5000    0.0000 C   0  0  0  0  0  0  0  0  0  0  0  0
   21.9186    6.0000    0.0000 C   0  0  0  0  0  0  0  0  0  0  0  0
   10.6603    7.5000    0.0000 C   0  0  0  0  0  0  0  0  0  0  0  0
   13.2583    0.0000    0.0000 C   0  0  0  0  0  0  0  0  0  0  0  0
   27.1147    6.0000    0.0000 C   0  0  0  0  0  0  0  0  0  0  0  0
    5.4641    7.5000    0.0000 C   0  0  0  0  0  0  0  0  0  0  0  0
   10.6603   -4.5000    0.0000 C   0  0  0  0  0  0  0  0  0  0  0  0
   21.0526    5.5000    0.0000 C   0  0  0  0  0  0  0  0  0  0  0  0
   11.5263    7.0000    0.0000 C   0  0  0  0  0  0  0  0  0  0  0  0
   13.2583    1.0000    0.0000 C   0  0  0  0  0  0  0  0  0  0  0  0
   27.9808    5.5000    0.0000 C   0  0  0  0  0  0  0  0  0  0  0  0
    4.5981    7.0000    0.0000 C   0  0  0  0  0  0  0  0  0  0  0  0
    9.7942   -5.0000    0.0000 C   0  0  0  0  0  0  0  0  0  0  0  0
   20.1865    6.0000    0.0000 C   0  0  0  0  0  0  0  0  0  0  0  0
   12.3923    7.5000    0.0000 C   0  0  0  0  0  0  0  0  0  0  0  0
   14.1244    1.5000    0.0000 C   0  0  0  0  0  0  0  0  0  0  0  0
   28.8468    6.0000    0.0000 C   0  0  0  0  0  0  0  0  0  0  0  0
    3.7320    7.5000    0.0000 C   0  0  0  0  0  0  0  0  0  0  0  0
    9.7942   -6.0000    0.0000 C   0  0  0  0  0  0  0  0  0  0  0  0
   19.3205    5.5000    0.0000 C   0  0  0  0  0  0  0  0  0  0  0  0
   13.2583    7.0000    0.0000 C   0  0  0  0  0  0  0  0  0  0  0  0
   14.1244    2.5000    0.0000 C   0  0  0  0  0  0  0  0  0  0  0  0
   29.7128    5.5000    0.0000 C   0  0  0  0  0  0  0  0  0  0  0  0
    2.8660    7.0000    0.0000 C   0  0  0  0  0  0  0  0  0  0  0  0
    8.9282   -6.5000    0.0000 C   0  0  0  0  0  0  0  0  0  0  0  0
   18.4545    6.0000    0.0000 C   0  0  0  0  0  0  0  0  0  0  0  0
   14.1244    7.5000    0.0000 C   0  0  0  0  0  0  0  0  0  0  0  0
   14.9904    3.0000    0.0000 C   0  0  0  0  0  0  0  0  0  0  0  0
   30.5788    6.0000    0.0000 C   0  0  0  0  0  0  0  0  0  0  0  0
    2.0000    7.5000    0.0000 C   0  0  0  0  0  0  0  0  0  0  0  0
    8.9282   -7.5000    0.0000 C   0  0  0  0  0  0  0  0  0  0  0  0
   17.5885    5.5000    0.0000 C   0  0  0  0  0  0  0  0  0  0  0  0
   14.9904    7.0000    0.0000 C   0  0  0  0  0  0  0  0  0  0  0  0
   14.9904    4.0000    0.0000 C   0  0  0  0  0  0  0  0  0  0  0  0
   11.3142   -1.4174    0.0000 H   0  0  0  0  0  0  0  0  0  0  0  0
   10.9157   -2.1077    0.0000 H   0  0  0  0  0  0  0  0  0  0  0  0
    7.6636    6.5250    0.0000 H   0  0  0  0  0  0  0  0  0  0  0  0
    8.4607    6.5250    0.0000 H   0  0  0  0  0  0  0  0  0  0  0  0
   24.1181    5.0250    0.0000 H   0  0  0  0  0  0  0  0  0  0  0  0
   24.9152    5.0250    0.0000 H   0  0  0  0  0  0  0  0  0  0  0  0
   12.6044   -2.0826    0.0000 H   0  0  0  0  0  0  0  0  0  0  0  0
   13.0029   -1.3923    0.0000 H   0  0  0  0  0  0  0  0  0  0  0  0
    9.3267    7.9750    0.0000 H   0  0  0  0  0  0  0  0  0  0  0  0
    8.5297    7.9750    0.0000 H   0  0  0  0  0  0  0  0  0  0  0  0
   24.0492    6.4750    0.0000 H   0  0  0  0  0  0  0  0  0  0  0  0
   23.2521    6.4750    0.0000 H   0  0  0  0  0  0  0  0  0  0  0  0
   11.7383   -3.5826    0.0000 H   0  0  0  0  0  0  0  0  0  0  0  0
   12.1369   -2.8923    0.0000 H   0  0  0  0  0  0  0  0  0  0  0  0
    7.5947    7.9750    0.0000 H   0  0  0  0  0  0  0  0  0  0  0  0
    6.7976    7.9750    0.0000 H   0  0  0  0  0  0  0  0  0  0  0  0
   25.7812    6.4750    0.0000 H   0  0  0  0  0  0  0  0  0  0  0  0
   24.9842    6.4750    0.0000 H   0  0  0  0  0  0  0  0  0  0  0  0
   12.1803    0.0826    0.0000 H   0  0  0  0  0  0  0  0  0  0  0  0
   11.7817   -0.6077    0.0000 H   0  0  0  0  0  0  0  0  0  0  0  0
    9.3957    6.5250    0.0000 H   0  0  0  0  0  0  0  0  0  0  0  0
   10.1928    6.5250    0.0000 H   0  0  0  0  0  0  0  0  0  0  0  0
   22.3861    5.0250    0.0000 H   0  0  0  0  0  0  0  0  0  0  0  0
   23.1831    5.0250    0.0000 H   0  0  0  0  0  0  0  0  0  0  0  0
   10.4482   -2.9174    0.0000 H   0  0  0  0  0  0  0  0  0  0  0  0
   10.0497   -3.6077    0.0000 H   0  0  0  0  0  0  0  0  0  0  0  0
    5.9316    6.5250    0.0000 H   0  0  0  0  0  0  0  0  0  0  0  0
    6.7287    6.5250    0.0000 H   0  0  0  0  0  0  0  0  0  0  0  0
   25.8502    5.0250    0.0000 H   0  0  0  0  0  0  0  0  0  0  0  0
   26.6472    5.0250    0.0000 H   0  0  0  0  0  0  0  0  0  0  0  0
   13.4704   -0.5826    0.0000 H   0  0  0  0  0  0  0  0  0  0  0  0
   13.8689    0.1077    0.0000 H   0  0  0  0  0  0  0  0  0  0  0  0
   11.0588    7.9750    0.0000 H   0  0  0  0  0  0  0  0  0  0  0  0
   10.2617    7.9750    0.0000 H   0  0  0  0  0  0  0  0  0  0  0  0
   22.3171    6.4750    0.0000 H   0  0  0  0  0  0  0  0  0  0  0  0
   21.5201    6.4750    0.0000 H   0  0  0  0  0  0  0  0  0  0  0  0
   10.8723   -5.0826    0.0000 H   0  0  0  0  0  0  0  0  0  0  0  0
   11.2708   -4.3923    0.0000 H   0  0  0  0  0  0  0  0  0  0  0  0
    5.8626    7.9750    0.0000 H   0  0  0  0  0  0  0  0  0  0  0  0
    5.0656    7.9750    0.0000 H   0  0  0  0  0  0  0  0  0  0  0  0
   27.5133    6.4750    0.0000 H   0  0  0  0  0  0  0  0  0  0  0  0
   26.7162    6.4750    0.0000 H   0  0  0  0  0  0  0  0  0  0  0  0
   13.0463    1.5826    0.0000 H   0  0  0  0  0  0  0  0  0  0  0  0
   12.6477    0.8923    0.0000 H   0  0  0  0  0  0  0  0  0  0  0  0
   11.1278    6.5250    0.0000 H   0  0  0  0  0  0  0  0  0  0  0  0
   11.9248    6.5250    0.0000 H   0  0  0  0  0  0  0  0  0  0  0  0
   20.6540    5.0250    0.0000 H   0  0  0  0  0  0  0  0  0  0  0  0
   21.4511    5.0250    0.0000 H   0  0  0  0  0  0  0  0  0  0  0  0
    9.5822   -4.4174    0.0000 H   0  0  0  0  0  0  0  0  0  0  0  0
    9.1836   -5.1077    0.0000 H   0  0  0  0  0  0  0  0  0  0  0  0
    4.1996    6.5250    0.0000 H   0  0  0  0  0  0  0  0  0  0  0  0
    4.9966    6.5250    0.0000 H   0  0  0  0  0  0  0  0  0  0  0  0
   27.5822    5.0250    0.0000 H   0  0  0  0  0  0  0  0  0  0  0  0
   28.3793    5.0250    0.0000 H   0  0  0  0  0  0  0  0  0  0  0  0
   14.3364    0.9174    0.0000 H   0  0  0  0  0  0  0  0  0  0  0  0
   14.7349    1.6077    0.0000 H   0  0  0  0  0  0  0  0  0  0  0  0
   12.7908    7.9750    0.0000 H   0  0  0  0  0  0  0  0  0  0  0  0
   11.9938    7.9750    0.0000 H   0  0  0  0  0  0  0  0  0  0  0  0
   20.5851    6.4750    0.0000 H   0  0  0  0  0  0  0  0  0  0  0  0
   19.7880    6.4750    0.0000 H   0  0  0  0  0  0  0  0  0  0  0  0
   10.0063   -6.5826    0.0000 H   0  0  0  0  0  0  0  0  0  0  0  0
   10.4048   -5.8923    0.0000 H   0  0  0  0  0  0  0  0  0  0  0  0
    4.1306    7.9750    0.0000 H   0  0  0  0  0  0  0  0  0  0  0  0
    3.3335    7.9750    0.0000 H   0  0  0  0  0  0  0  0  0  0  0  0
   29.2453    6.4750    0.0000 H   0  0  0  0  0  0  0  0  0  0  0  0
   28.4483    6.4750    0.0000 H   0  0  0  0  0  0  0  0  0  0  0  0
   13.9123    3.0826    0.0000 H   0  0  0  0  0  0  0  0  0  0  0  0
   13.5138    2.3923    0.0000 H   0  0  0  0  0  0  0  0  0  0  0  0
   12.8598    6.5250    0.0000 H   0  0  0  0  0  0  0  0  0  0  0  0
   13.6569    6.5250    0.0000 H   0  0  0  0  0  0  0  0  0  0  0  0
   18.9220    5.0250    0.0000 H   0  0  0  0  0  0  0  0  0  0  0  0
   19.7190    5.0250    0.0000 H   0  0  0  0  0  0  0  0  0  0  0  0
    8.7162   -5.9174    0.0000 H   0  0  0  0  0  0  0  0  0  0  0  0
    8.3176   -6.6077    0.0000 H   0  0  0  0  0  0  0  0  0  0  0  0
    2.4675    6.5250    0.0000 H   0  0  0  0  0  0  0  0  0  0  0  0
    3.2646    6.5250    0.0000 H   0  0  0  0  0  0  0  0  0  0  0  0
   29.3143    5.0250    0.0000 H   0  0  0  0  0  0  0  0  0  0  0  0
   30.1113    5.0250    0.0000 H   0  0  0  0  0  0  0  0  0  0  0  0
   15.2024    2.4174    0.0000 H   0  0  0  0  0  0  0  0  0  0  0  0
   15.6010    3.1077    0.0000 H   0  0  0  0  0  0  0  0  0  0  0  0
   14.5229    7.9750    0.0000 H   0  0  0  0  0  0  0  0  0  0  0  0
   13.7258    7.9750    0.0000 H   0  0  0  0  0  0  0  0  0  0  0  0
   18.8530    6.4750    0.0000 H   0  0  0  0  0  0  0  0  0  0  0  0
   18.0560    6.4750    0.0000 H   0  0  0  0  0  0  0  0  0  0  0  0
    8.3082   -7.5000    0.0000 H   0  0  0  0  0  0  0  0  0  0  0  0
    8.9282   -8.1200    0.0000 H   0  0  0  0  0  0  0  0  0  0  0  0
    9.5482   -7.5000    0.0000 H   0  0  0  0  0  0  0  0  0  0  0  0
    2.3100    8.0369    0.0000 H   0  0  0  0  0  0  0  0  0  0  0  0
    1.4631    7.8100    0.0000 H   0  0  0  0  0  0  0  0  0  0  0  0
    1.6900    6.9631    0.0000 H   0  0  0  0  0  0  0  0  0  0  0  0
   30.8888    5.4631    0.0000 H   0  0  0  0  0  0  0  0  0  0  0  0
   31.1158    6.3100    0.0000 H   0  0  0  0  0  0  0  0  0  0  0  0
   30.2688    6.5369    0.0000 H   0  0  0  0  0  0  0  0  0  0  0  0
  2 53  1  0  0  0  0
  3 54  1  0  0  0  0
  4 55  1  0  0  0  0
  5 53  2  0  0  0  0
  6 54  2  0  0  0  0
  7 55  2  0  0  0  0
  8 11  1  0  0  0  0
  8 14  1  0  0  0  0
  8 60  1  0  0  0  0
  8 61  1  0  0  0  0
  9 12  1  0  0  0  0
  9 15  1  0  0  0  0
  9 58  1  0  0  0  0
  9 59  1  0  0  0  0
 10 13  1  0  0  0  0
 10 16  1  0  0  0  0
 10 56  1  0  0  0  0
 10 57  1  0  0  0  0
 11 17  1  0  0  0  0
 11 66  1  0  0  0  0
 11 67  1  0  0  0  0
 12 18  1  0  0  0  0
 12 64  1  0  0  0  0
 12 65  1  0  0  0  0
 13 19  1  0  0  0  0
 13 62  1  0  0  0  0
 13 63  1  0  0  0  0
 14 20  1  0  0  0  0
 14 72  1  0  0  0  0
 14 73  1  0  0  0  0
 15 21  1  0  0  0  0
 15 70  1  0  0  0  0
 15 71  1  0  0  0  0
 16 22  1  0  0  0  0
 16 68  1  0  0  0  0
 16 69  1  0  0  0  0
 17 23  1  0  0  0  0
 17 78  1  0  0  0  0
 17 79  1  0  0  0  0
 18 24  1  0  0  0  0
 18 76  1  0  0  0  0
 18 77  1  0  0  0  0
 19 25  1  0  0  0  0
 19 74  1  0  0  0  0
 19 75  1  0  0  0  0
 20 26  1  0  0  0  0
 20 84  1  0  0  0  0
 20 85  1  0  0  0  0
 21 27  1  0  0  0  0
 21 82  1  0  0  0  0
 21 83  1  0  0  0  0
 22 28  1  0  0  0  0
 22 80  1  0  0  0  0
 22 81  1  0  0  0  0
 23 29  1  0  0  0  0
 23 90  1  0  0  0  0
 23 91  1  0  0  0  0
 24 30  1  0  0  0  0
 24 88  1  0  0  0  0
 24 89  1  0  0  0  0
 25 31  1  0  0  0  0
 25 86  1  0  0  0  0
 25 87  1  0  0  0  0
 26 32  1  0  0  0  0
 26 96  1  0  0  0  0
 26 97  1  0  0  0  0
 27 33  1  0  0  0  0
 27 94  1  0  0  0  0
 27 95  1  0  0  0  0
 28 34  1  0  0  0  0
 28 92  1  0  0  0  0
 28 93  1  0  0  0  0
 29 35  1  0  0  0  0
 29102  1  0  0  0  0
 29103  1  0  0  0  0
 30 36  1  0  0  0  0
 30100  1  0  0  0  0
 30101  1  0  0  0  0
 31 37  1  0  0  0  0
 31 98  1  0  0  0  0
 31 99  1  0  0  0  0
 32 38  1  0  0  0  0
 32108  1  0  0  0  0
 32109  1  0  0  0  0
 33 39  1  0  0  0  0
 33106  1  0  0  0  0
 33107  1  0  0  0  0
 34 40  1  0  0  0  0
 34104  1  0  0  0  0
 34105  1  0  0  0  0
 35 41  1  0  0  0  0
 35114  1  0  0  0  0
 35115  1  0  0  0  0
 36 42  1  0  0  0  0
 36112  1  0  0  0  0
 36113  1  0  0  0  0
 37 43  1  0  0  0  0
 37110  1  0  0  0  0
 37111  1  0  0  0  0
 38 44  1  0  0  0  0
 38120  1  0  0  0  0
 38121  1  0  0  0  0
 39 45  1  0  0  0  0
 39118  1  0  0  0  0
 39119  1  0  0  0  0
 40 46  1  0  0  0  0
 40116  1  0  0  0  0
 40117  1  0  0  0  0
 41 47  1  0  0  0  0
 41126  1  0  0  0  0
 41127  1  0  0  0  0
 42 48  1  0  0  0  0
 42124  1  0  0  0  0
 42125  1  0  0  0  0
 43 49  1  0  0  0  0
 43122  1  0  0  0  0
 43123  1  0  0  0  0
 44 50  1  0  0  0  0
 44132  1  0  0  0  0
 44133  1  0  0  0  0
 45 51  1  0  0  0  0
 45130  1  0  0  0  0
 45131  1  0  0  0  0
 46 52  1  0  0  0  0
 46128  1  0  0  0  0
 46129  1  0  0  0  0
 47 53  1  0  0  0  0
 47138  1  0  0  0  0
 47139  1  0  0  0  0
 48 54  1  0  0  0  0
 48136  1  0  0  0  0
 48137  1  0  0  0  0
 49 55  1  0  0  0  0
 49134  1  0  0  0  0
 49135  1  0  0  0  0
 50146  1  0  0  0  0
 50147  1  0  0  0  0
 50148  1  0  0  0  0
 51143  1  0  0  0  0
 51144  1  0  0  0  0
 51145  1  0  0  0  0
 52140  1  0  0  0  0
 52141  1  0  0  0  0
 52142  1  0  0  0  0
M  CHG  4   1   3   2  -1   3  -1   4  -1
M  END
> <PUBCHEM_COMPOUND_CID>
11144

> <PUBCHEM_COMPOUND_CANONICALIZED>
1

> <PUBCHEM_CACTVS_COMPLEXITY>
172

> <PUBCHEM_CACTVS_HBOND_ACCEPTOR>
6

> <PUBCHEM_CACTVS_HBOND_DONOR>
0

> <PUBCHEM_CACTVS_ROTATABLE_BOND>
39

> <PUBCHEM_CACTVS_SUBSKEYS>
AAADcfB8OAAAABAAAAAAAAAAAAAAAAAAAAAAAAAAAAAAAAAAAAAAGgAAAAAACACAgAACCAAAAAAIAACQCAAAAAAAAAAAAAEAAAAAABIAAAAAAAAEAAAAAAGIyKCAAAAAAAAAAAAAAAAAAAAAAAAAAAAAAA==

> <PUBCHEM_IUPAC_OPENEYE_NAME>
aluminum hexadecanoate

> <PUBCHEM_IUPAC_CAS_NAME>
aluminum hexadecanoate

> <PUBCHEM_IUPAC_NAME>
aluminum hexadecanoate

> <PUBCHEM_IUPAC_SYSTEMATIC_NAME>
aluminum hexadecanoate

> <PUBCHEM_IUPAC_TRADITIONAL_NAME>
aluminum palmitate

> <PUBCHEM_IUPAC_INCHI>
InChI=1S/3C16H32O2.Al/c3*1-2-3-4-5-6-7-8-9-10-11-12-13-14-15-16(17)18;/h3*2-15H2,1H3,(H,17,18);/q;;;+3/p-3

> <PUBCHEM_IUPAC_INCHIKEY>
PZWDHVKNXVLHOV-UHFFFAOYSA-K

> <PUBCHEM_EXACT_MASS>
792.678754

> <PUBCHEM_MOLECULAR_FORMULA>
C48H93AlO6

> <PUBCHEM_MOLECULAR_WEIGHT>
793.229959

> <PUBCHEM_OPENEYE_CAN_SMILES>
CCCCCCCCCCCCCCCC(=O)[O-].CCCCCCCCCCCCCCCC(=O)[O-].CCCCCCCCCCCCCCCC(=O)[O-].[Al+3]

> <PUBCHEM_OPENEYE_ISO_SMILES>
CCCCCCCCCCCCCCCC(=O)[O-].CCCCCCCCCCCCCCCC(=O)[O-].CCCCCCCCCCCCCCCC(=O)[O-].[Al+3]

> <PUBCHEM_CACTVS_TPSA>
120

> <PUBCHEM_MONOISOTOPIC_WEIGHT>
792.678754

> <PUBCHEM_TOTAL_CHARGE>
0

> <PUBCHEM_HEAVY_ATOM_COUNT>
55

> <PUBCHEM_ATOM_DEF_STEREO_COUNT>
0

> <PUBCHEM_ATOM_UDEF_STEREO_COUNT>
0

> <PUBCHEM_BOND_DEF_STEREO_COUNT>
0

> <PUBCHEM_BOND_UDEF_STEREO_COUNT>
0

> <PUBCHEM_ISOTOPIC_ATOM_COUNT>
0

> <PUBCHEM_COMPONENT_COUNT>
4

> <PUBCHEM_CACTVS_TAUTO_COUNT>
1

> <PUBCHEM_COORDINATE_TYPE>
1
5
255

$$$$

