9575
  -OEChem-06261203503D

 30 32  0     0  0  0  0  0  0999 V2000
   -5.6438    0.9000    0.0015 F   0  0  0  0  0  0  0  0  0  0  0  0
    4.2661    1.7565    0.0027 O   0  0  0  0  0  0  0  0  0  0  0  0
    3.8023   -0.5550    0.0000 N   0  0  0  0  0  0  0  0  0  0  0  0
   -0.7270    1.5982   -0.0012 C   0  0  0  0  0  0  0  0  0  0  0  0
    0.2873    0.4737   -0.0011 C   0  0  0  0  0  0  0  0  0  0  0  0
   -0.3642   -0.7801   -0.0008 C   0  0  0  0  0  0  0  0  0  0  0  0
   -2.0348    0.8343   -0.0010 C   0  0  0  0  0  0  0  0  0  0  0  0
   -1.7942   -0.5581   -0.0007 C   0  0  0  0  0  0  0  0  0  0  0  0
    1.6677    0.5713   -0.0006 C   0  0  0  0  0  0  0  0  0  0  0  0
    0.3700   -1.9544    0.0000 C   0  0  0  0  0  0  0  0  0  0  0  0
   -3.3206    1.3459   -0.0007 C   0  0  0  0  0  0  0  0  0  0  0  0
   -2.8498   -1.4544    0.0002 C   0  0  0  0  0  0  0  0  0  0  0  0
    2.4075   -0.6125    0.0002 C   0  0  0  0  0  0  0  0  0  0  0  0
    1.7653   -1.8628    0.0005 C   0  0  0  0  0  0  0  0  0  0  0  0
   -4.3845    0.4421    0.0004 C   0  0  0  0  0  0  0  0  0  0  0  0
   -4.1517   -0.9440    0.0011 C   0  0  0  0  0  0  0  0  0  0  0  0
    4.6205    0.5821   -0.0003 C   0  0  0  0  0  0  0  0  0  0  0  0
    6.0838    0.2172   -0.0002 C   0  0  0  0  0  0  0  0  0  0  0  0
   -0.6328    2.2051    0.9039 H   0  0  0  0  0  0  0  0  0  0  0  0
   -0.6328    2.2050   -0.9063 H   0  0  0  0  0  0  0  0  0  0  0  0
    2.0890    1.5651   -0.0011 H   0  0  0  0  0  0  0  0  0  0  0  0
   -0.1115   -2.9265    0.0005 H   0  0  0  0  0  0  0  0  0  0  0  0
   -3.5021    2.4147   -0.0008 H   0  0  0  0  0  0  0  0  0  0  0  0
   -2.6859   -2.5268    0.0007 H   0  0  0  0  0  0  0  0  0  0  0  0
    2.3505   -2.7799    0.0010 H   0  0  0  0  0  0  0  0  0  0  0  0
   -4.9967   -1.6276    0.0021 H   0  0  0  0  0  0  0  0  0  0  0  0
    4.2743   -1.4569    0.0000 H   0  0  0  0  0  0  0  0  0  0  0  0
    6.3244   -0.3440    0.9070 H   0  0  0  0  0  0  0  0  0  0  0  0
    6.6923    1.1253   -0.0287 H   0  0  0  0  0  0  0  0  0  0  0  0
    6.3148   -0.3915   -0.8790 H   0  0  0  0  0  0  0  0  0  0  0  0
  1 15  1  0  0  0  0
  2 17  2  0  0  0  0
  3 13  1  0  0  0  0
  3 17  1  0  0  0  0
  3 27  1  0  0  0  0
  4  5  1  0  0  0  0
  4  7  1  0  0  0  0
  4 19  1  0  0  0  0
  4 20  1  0  0  0  0
  5  6  2  0  0  0  0
  5  9  1  0  0  0  0
  6  8  1  0  0  0  0
  6 10  1  0  0  0  0
  7  8  2  0  0  0  0
  7 11  1  0  0  0  0
  8 12  1  0  0  0  0
  9 13  2  0  0  0  0
  9 21  1  0  0  0  0
 10 14  2  0  0  0  0
 10 22  1  0  0  0  0
 11 15  2  0  0  0  0
 11 23  1  0  0  0  0
 12 16  2  0  0  0  0
 12 24  1  0  0  0  0
 13 14  1  0  0  0  0
 14 25  1  0  0  0  0
 15 16  1  0  0  0  0
 16 26  1  0  0  0  0
 17 18  1  0  0  0  0
 18 28  1  0  0  0  0
 18 29  1  0  0  0  0
 18 30  1  0  0  0  0
M  END
> <PUBCHEM_COMPOUND_CID>
9575

> <PUBCHEM_CONFORMER_RMSD>
0.6

> <PUBCHEM_CONFORMER_DIVERSEORDER>
1
3
2
4

> <PUBCHEM_MMFF94_PARTIAL_CHARGES>
23
1 -0.19
10 -0.15
11 -0.15
12 -0.15
13 0.12
14 -0.15
15 0.19
16 -0.15
17 0.57
18 0.06
2 -0.57
21 0.15
22 0.15
23 0.15
24 0.15
25 0.15
26 0.15
27 0.37
3 -0.55
4 0.29
5 -0.14
7 -0.14
9 -0.15

> <PUBCHEM_EFFECTIVE_ROTOR_COUNT>
2.2

> <PUBCHEM_PHARMACOPHORE_FEATURES>
5
1 2 acceptor
1 3 donor
5 4 5 6 7 8 rings
6 5 6 9 10 13 14 rings
6 7 8 11 12 15 16 rings

> <PUBCHEM_HEAVY_ATOM_COUNT>
18

> <PUBCHEM_ATOM_DEF_STEREO_COUNT>
0

> <PUBCHEM_ATOM_UDEF_STEREO_COUNT>
0

> <PUBCHEM_BOND_DEF_STEREO_COUNT>
0

> <PUBCHEM_BOND_UDEF_STEREO_COUNT>
0

> <PUBCHEM_ISOTOPIC_ATOM_COUNT>
0

> <PUBCHEM_COMPONENT_COUNT>
1

> <PUBCHEM_CACTVS_TAUTO_COUNT>
2

> <PUBCHEM_CONFORMER_ID>
0000256700000001

> <PUBCHEM_MMFF94_ENERGY>
58.6422

> <PUBCHEM_FEATURE_SELFOVERLAP>
25.536

> <PUBCHEM_SHAPE_FINGERPRINT>
10411042 1 17617941326977397766
11132069 177 18413668015214485439
11401426 45 18411419505472368919
11578080 2 16914831485439710910
12236239 1 17918275338107306158
12390115 104 18043234937504643529
12403259 415 18412273826471952756
12403814 3 17775569753897659021
13214271 11 18410856542861133047
14787075 74 18336830792554110427
14790565 3 18410286982610495928
15048467 5 18260828232980583561
15196674 1 18410573993762803046
15375358 24 18341893004450269211
15536298 74 18335419114361532246
16945 1 18050567640579135431
19784866 170 18413669123521841067
200 152 18040720264327719927
20510252 161 18189333644598900033
20645477 70 18115024237472235326
21267235 1 18338510851218030839
23402539 116 18335426737965204758
23402655 69 18262244425516242125
23559900 14 18335138726544342854
296302 2 18410855482030454575
335352 9 18410575085311893342
34797466 226 16950557732003640940
34934 24 18411423938248110847
351380 180 18410575072479777576
3545911 37 18411698802731848965
4214541 1 18410575080378901477
4340502 62 16988839501488722803
474 4 17846210034518880924
474229 33 18410856542586891222
4990 188 17895186710636619486
5104073 3 18269833267376473291
542803 24 17489868228719924084
7364860 26 18264207096669228302
9709674 26 18410567405267478110

> <PUBCHEM_SHAPE_MULTIPOLES>
352.31
11.03
1.81
0.6
6.01
0.29
0
-3.05
0
-0.14
0
-0.01
0.01
0

> <PUBCHEM_SHAPE_SELFOVERLAP>
782.095

> <PUBCHEM_SHAPE_VOLUME>
190.1

> <PUBCHEM_COORDINATE_TYPE>
2
5
10

$$$$

