11190
  -OEChem-06261205223D

 10  9  0     0  0  0  0  0  0999 V2000
    2.9251   -0.2599    0.0116 O   0  0  0  0  0  0  0  0  0  0  0  0
   -2.8111    0.1817    0.0081 O   0  0  0  0  0  0  0  0  0  0  0  0
    1.7449    0.4531   -0.0068 N   0  0  0  0  0  0  0  0  0  0  0  0
   -1.7559   -0.4592   -0.0043 N   0  0  0  0  0  0  0  0  0  0  0  0
    0.5644   -0.2191   -0.0101 C   0  0  0  0  0  0  0  0  0  0  0  0
   -0.6675    0.3034    0.0015 C   0  0  0  0  0  0  0  0  0  0  0  0
    0.7063   -1.2969   -0.0269 H   0  0  0  0  0  0  0  0  0  0  0  0
    1.7863    1.4633    0.0415 H   0  0  0  0  0  0  0  0  0  0  0  0
   -0.7795    1.3856    0.0166 H   0  0  0  0  0  0  0  0  0  0  0  0
    3.4337    0.1801   -0.6906 H   0  0  0  0  0  0  0  0  0  0  0  0
  1  3  1  0  0  0  0
  1 10  1  0  0  0  0
  2  4  2  0  0  0  0
  3  5  1  0  0  0  0
  3  8  1  0  0  0  0
  4  6  1  0  0  0  0
  5  6  2  0  0  0  0
  5  7  1  0  0  0  0
  6  9  1  0  0  0  0
M  END
> <PUBCHEM_COMPOUND_CID>
11190

> <PUBCHEM_CONFORMER_RMSD>
0.4

> <PUBCHEM_CONFORMER_DIVERSEORDER>
1
2
3

> <PUBCHEM_MMFF94_PARTIAL_CHARGES>
10
1 -0.38
10 0.4
2 -0.16
3 -0.52
4 -0.13
5 -0.05
6 0.14
7 0.15
8 0.4
9 0.15

> <PUBCHEM_EFFECTIVE_ROTOR_COUNT>
2

> <PUBCHEM_PHARMACOPHORE_FEATURES>
1
1 1 anion

> <PUBCHEM_HEAVY_ATOM_COUNT>
6

> <PUBCHEM_ATOM_DEF_STEREO_COUNT>
0

> <PUBCHEM_ATOM_UDEF_STEREO_COUNT>
0

> <PUBCHEM_BOND_DEF_STEREO_COUNT>
0

> <PUBCHEM_BOND_UDEF_STEREO_COUNT>
1

> <PUBCHEM_ISOTOPIC_ATOM_COUNT>
0

> <PUBCHEM_COMPONENT_COUNT>
1

> <PUBCHEM_CACTVS_TAUTO_COUNT>
2

> <PUBCHEM_CONFORMER_ID>
00002BB600000001

> <PUBCHEM_MMFF94_ENERGY>
6.4643

> <PUBCHEM_FEATURE_SELFOVERLAP>
5.074

> <PUBCHEM_SHAPE_FINGERPRINT>
14390081 3 18260270737208366681
16714656 1 18342176665459539687
20096714 4 18338235964119544681
29004967 10 15285351804148101310
5460574 1 9295290542687627332

> <PUBCHEM_SHAPE_MULTIPOLES>
101.78
4.02
0.66
0.55
0.42
0.01
0
-0.12
0.02
0
0
0
0
0

> <PUBCHEM_SHAPE_SELFOVERLAP>
184.195

> <PUBCHEM_SHAPE_VOLUME>
65.1

> <PUBCHEM_COORDINATE_TYPE>
2
5
10

$$$$

