17396144
  -OEChem-06241222542D

 38 40  0     1  0  0  0  0  0999 V2000
    2.0000    1.6020    0.0000 Cl  0  0  0  0  0  0  0  0  0  0  0  0
    7.1279    0.6020    0.0000 S   0  0  0  0  0  0  0  0  0  0  0  0
    9.1279    0.6020    0.0000 O   0  0  0  0  0  0  0  0  0  0  0  0
    9.1279   -1.1300    0.0000 N   0  0  0  0  0  0  0  0  0  0  0  0
    5.5443    1.4067    0.0000 N   0  0  0  0  0  0  0  0  0  0  0  0
    5.5443   -0.2027    0.0000 N   0  0  0  0  0  0  0  0  0  0  0  0
    3.7320   -0.3980    0.0000 N   0  0  0  0  0  0  0  0  0  0  0  0
    7.6279   -0.2640    0.0000 C   0  0  3  0  0  0  0  0  0  0  0  0
    8.6279   -0.2640    0.0000 C   0  0  0  0  0  0  0  0  0  0  0  0
    7.1279   -1.1300    0.0000 C   0  0  0  0  0  0  0  0  0  0  0  0
   10.1279   -1.1300    0.0000 C   0  0  0  0  0  0  0  0  0  0  0  0
    6.1279    0.6020    0.0000 C   0  0  0  0  0  0  0  0  0  0  0  0
    4.5981    1.1020    0.0000 C   0  0  0  0  0  0  0  0  0  0  0  0
    4.5981    0.1020    0.0000 C   0  0  0  0  0  0  0  0  0  0  0  0
    8.6279   -1.9961    0.0000 C   0  0  0  0  0  0  0  0  0  0  0  0
   10.6279   -1.9961    0.0000 C   0  0  0  0  0  0  0  0  0  0  0  0
   10.6279   -0.2640    0.0000 C   0  0  0  0  0  0  0  0  0  0  0  0
    3.7320    1.6020    0.0000 C   0  0  0  0  0  0  0  0  0  0  0  0
   11.6279   -1.9961    0.0000 C   0  0  0  0  0  0  0  0  0  0  0  0
   11.6279   -0.2640    0.0000 C   0  0  0  0  0  0  0  0  0  0  0  0
    2.8660    1.1020    0.0000 C   0  0  0  0  0  0  0  0  0  0  0  0
   12.1279   -1.1300    0.0000 C   0  0  0  0  0  0  0  0  0  0  0  0
    2.8660    0.1020    0.0000 C   0  0  0  0  0  0  0  0  0  0  0  0
    7.0079   -0.2640    0.0000 H   0  0  0  0  0  0  0  0  0  0  0  0
    6.5910   -0.8200    0.0000 H   0  0  0  0  0  0  0  0  0  0  0  0
    6.8179   -1.6670    0.0000 H   0  0  0  0  0  0  0  0  0  0  0  0
    7.6648   -1.4400    0.0000 H   0  0  0  0  0  0  0  0  0  0  0  0
    5.7369    1.9961    0.0000 H   0  0  0  0  0  0  0  0  0  0  0  0
    8.0910   -1.6861    0.0000 H   0  0  0  0  0  0  0  0  0  0  0  0
    8.3179   -2.5330    0.0000 H   0  0  0  0  0  0  0  0  0  0  0  0
    9.1648   -2.3061    0.0000 H   0  0  0  0  0  0  0  0  0  0  0  0
   10.3179   -2.5330    0.0000 H   0  0  0  0  0  0  0  0  0  0  0  0
   10.3179    0.2729    0.0000 H   0  0  0  0  0  0  0  0  0  0  0  0
    3.7320    2.2220    0.0000 H   0  0  0  0  0  0  0  0  0  0  0  0
   11.9379   -2.5330    0.0000 H   0  0  0  0  0  0  0  0  0  0  0  0
   11.9379    0.2729    0.0000 H   0  0  0  0  0  0  0  0  0  0  0  0
   12.7479   -1.1300    0.0000 H   0  0  0  0  0  0  0  0  0  0  0  0
    2.3291   -0.2080    0.0000 H   0  0  0  0  0  0  0  0  0  0  0  0
  1 21  1  0  0  0  0
  2  8  1  0  0  0  0
  2 12  1  0  0  0  0
  3  9  2  0  0  0  0
  4  9  1  0  0  0  0
  4 11  1  0  0  0  0
  4 15  1  0  0  0  0
  5 12  1  0  0  0  0
  5 13  1  0  0  0  0
  5 28  1  0  0  0  0
  6 12  2  0  0  0  0
  6 14  1  0  0  0  0
  7 14  1  0  0  0  0
  7 23  2  0  0  0  0
  8  9  1  0  0  0  0
  8 10  1  0  0  0  0
  8 24  1  0  0  0  0
 10 25  1  0  0  0  0
 10 26  1  0  0  0  0
 10 27  1  0  0  0  0
 11 16  2  0  0  0  0
 11 17  1  0  0  0  0
 13 14  2  0  0  0  0
 13 18  1  0  0  0  0
 15 29  1  0  0  0  0
 15 30  1  0  0  0  0
 15 31  1  0  0  0  0
 16 19  1  0  0  0  0
 16 32  1  0  0  0  0
 17 20  2  0  0  0  0
 17 33  1  0  0  0  0
 18 21  2  0  0  0  0
 18 34  1  0  0  0  0
 19 22  2  0  0  0  0
 19 35  1  0  0  0  0
 20 22  1  0  0  0  0
 20 36  1  0  0  0  0
 21 23  1  0  0  0  0
 22 37  1  0  0  0  0
 23 38  1  0  0  0  0
M  END
> <PUBCHEM_COMPOUND_CID>
17396144

> <PUBCHEM_COMPOUND_CANONICALIZED>
1

> <PUBCHEM_CACTVS_COMPLEXITY>
421

> <PUBCHEM_CACTVS_HBOND_ACCEPTOR>
4

> <PUBCHEM_CACTVS_HBOND_DONOR>
1

> <PUBCHEM_CACTVS_ROTATABLE_BOND>
4

> <PUBCHEM_CACTVS_SUBSKEYS>
AAADccB7oABEAAAAAAAAAAAAAAAAAWAAAAA8QAAAAAAAAFgB/AAAHgYQAAAACArF1yS/8L/JkAioATd3dACC0i3xF7AJ2SE4dpiIaOLBm5HUIAholgLIyCcQAAAAAAAAAAAAAAAAAAAAAAAAAAAAAAAAAA==

> <PUBCHEM_IUPAC_OPENEYE_NAME>
2-[(6-chloro-1H-imidazo[4,5-b]pyridin-2-yl)sulfanyl]-N-methyl-N-phenyl-propanamide

> <PUBCHEM_IUPAC_CAS_NAME>
2-[(6-chloro-1H-imidazo[4,5-b]pyridin-2-yl)thio]-N-methyl-N-phenylpropanamide

> <PUBCHEM_IUPAC_NAME>
2-[(6-chloro-1H-imidazo[4,5-b]pyridin-2-yl)sulfanyl]-N-methyl-N-phenylpropanamide

> <PUBCHEM_IUPAC_SYSTEMATIC_NAME>
2-[(6-chloranyl-1H-imidazo[4,5-b]pyridin-2-yl)sulfanyl]-N-methyl-N-phenyl-propanamide

> <PUBCHEM_IUPAC_TRADITIONAL_NAME>
2-[(6-chloro-1H-imidazo[4,5-b]pyridin-2-yl)thio]-N-methyl-N-phenyl-propionamide

> <PUBCHEM_IUPAC_INCHI>
InChI=1S/C16H15ClN4OS/c1-10(15(22)21(2)12-6-4-3-5-7-12)23-16-19-13-8-11(17)9-18-14(13)20-16/h3-10H,1-2H3,(H,18,19,20)

> <PUBCHEM_IUPAC_INCHIKEY>
HNILJKUZFRDYKQ-UHFFFAOYSA-N

> <PUBCHEM_XLOGP3_AA>
3.7

> <PUBCHEM_EXACT_MASS>
346.06551

> <PUBCHEM_MOLECULAR_FORMULA>
C16H15ClN4OS

> <PUBCHEM_MOLECULAR_WEIGHT>
346.8345

> <PUBCHEM_OPENEYE_CAN_SMILES>
CC(C(=O)N(C)C1=CC=CC=C1)SC2=NC3=NC=C(C=C3N2)Cl

> <PUBCHEM_OPENEYE_ISO_SMILES>
CC(C(=O)N(C)C1=CC=CC=C1)SC2=NC3=NC=C(C=C3N2)Cl

> <PUBCHEM_CACTVS_TPSA>
87.2

> <PUBCHEM_MONOISOTOPIC_WEIGHT>
346.06551

> <PUBCHEM_TOTAL_CHARGE>
0

> <PUBCHEM_HEAVY_ATOM_COUNT>
23

> <PUBCHEM_ATOM_DEF_STEREO_COUNT>
0

> <PUBCHEM_ATOM_UDEF_STEREO_COUNT>
1

> <PUBCHEM_BOND_DEF_STEREO_COUNT>
0

> <PUBCHEM_BOND_UDEF_STEREO_COUNT>
0

> <PUBCHEM_ISOTOPIC_ATOM_COUNT>
0

> <PUBCHEM_COMPONENT_COUNT>
1

> <PUBCHEM_CACTVS_TAUTO_COUNT>
3

> <PUBCHEM_COORDINATE_TYPE>
1
5
255

> <PUBCHEM_BONDANNOTATIONS>
11  16  8
11  17  8
13  14  8
13  18  8
16  19  8
17  20  8
18  21  8
19  22  8
20  22  8
21  23  8
5  12  8
5  13  8
6  12  8
6  14  8
7  14  8
7  23  8
8  10  3

$$$$

