13250
  -OEChem-06261208063D

 24 24  0     0  0  0  0  0  0999 V2000
   -2.5118    0.2584   -0.0001 O   0  0  0  0  0  0  0  0  0  0  0  0
    3.0427   -1.9470    0.0033 O   0  0  0  0  0  0  0  0  0  0  0  0
    1.7068    2.6524   -0.0013 O   0  0  0  0  0  0  0  0  0  0  0  0
    3.7113    0.7412    0.0017 O   0  0  0  0  0  0  0  0  0  0  0  0
   -2.0610   -1.9990   -0.0019 O   0  0  0  0  0  0  0  0  0  0  0  0
   -0.2770   -0.4171   -0.0024 C   0  0  0  0  0  0  0  0  0  0  0  0
    0.0560    0.9374   -0.0023 C   0  0  0  0  0  0  0  0  0  0  0  0
    0.7296   -1.3828   -0.0009 C   0  0  0  0  0  0  0  0  0  0  0  0
    2.0691   -0.9939    0.0007 C   0  0  0  0  0  0  0  0  0  0  0  0
    1.3956    1.3262   -0.0008 C   0  0  0  0  0  0  0  0  0  0  0  0
    2.4021    0.3605    0.0007 C   0  0  0  0  0  0  0  0  0  0  0  0
   -1.6734   -0.8229   -0.0019 C   0  0  0  0  0  0  0  0  0  0  0  0
   -3.9175   -0.0127    0.0018 C   0  0  0  0  0  0  0  0  0  0  0  0
   -4.6727    1.2993    0.0035 C   0  0  0  0  0  0  0  0  0  0  0  0
   -0.7049    1.7135   -0.0032 H   0  0  0  0  0  0  0  0  0  0  0  0
    0.4851   -2.4424   -0.0003 H   0  0  0  0  0  0  0  0  0  0  0  0
   -4.1776   -0.5901   -0.8921 H   0  0  0  0  0  0  0  0  0  0  0  0
   -4.1749   -0.5908    0.8960 H   0  0  0  0  0  0  0  0  0  0  0  0
   -5.7529    1.1289    0.0050 H   0  0  0  0  0  0  0  0  0  0  0  0
   -4.4072    1.8955    0.8828 H   0  0  0  0  0  0  0  0  0  0  0  0
   -4.4099    1.8961   -0.8762 H   0  0  0  0  0  0  0  0  0  0  0  0
    3.9074   -1.5008    0.0045 H   0  0  0  0  0  0  0  0  0  0  0  0
    0.8855    3.1731   -0.0026 H   0  0  0  0  0  0  0  0  0  0  0  0
    3.7485    1.7135    0.0014 H   0  0  0  0  0  0  0  0  0  0  0  0
  1 12  1  0  0  0  0
  1 13  1  0  0  0  0
  2  9  1  0  0  0  0
  2 22  1  0  0  0  0
  3 10  1  0  0  0  0
  3 23  1  0  0  0  0
  4 11  1  0  0  0  0
  4 24  1  0  0  0  0
  5 12  2  0  0  0  0
  6  7  2  0  0  0  0
  6  8  1  0  0  0  0
  6 12  1  0  0  0  0
  7 10  1  0  0  0  0
  7 15  1  0  0  0  0
  8  9  2  0  0  0  0
  8 16  1  0  0  0  0
  9 11  1  0  0  0  0
 10 11  2  0  0  0  0
 13 14  1  0  0  0  0
 13 17  1  0  0  0  0
 13 18  1  0  0  0  0
 14 19  1  0  0  0  0
 14 20  1  0  0  0  0
 14 21  1  0  0  0  0
M  END
> <PUBCHEM_COMPOUND_CID>
13250

> <PUBCHEM_CONFORMER_RMSD>
0.6

> <PUBCHEM_CONFORMER_DIVERSEORDER>
1
4
2
3
5
6
7

> <PUBCHEM_MMFF94_PARTIAL_CHARGES>
18
1 -0.43
10 0.08
11 0.08
12 0.63
13 0.28
15 0.15
16 0.15
2 -0.53
22 0.45
23 0.45
24 0.45
3 -0.53
4 -0.53
5 -0.57
6 0.09
7 -0.15
8 -0.15
9 0.08

> <PUBCHEM_EFFECTIVE_ROTOR_COUNT>
3

> <PUBCHEM_PHARMACOPHORE_FEATURES>
5
1 2 donor
1 3 donor
1 4 donor
1 5 acceptor
6 6 7 8 9 10 11 rings

> <PUBCHEM_HEAVY_ATOM_COUNT>
14

> <PUBCHEM_ATOM_DEF_STEREO_COUNT>
0

> <PUBCHEM_ATOM_UDEF_STEREO_COUNT>
0

> <PUBCHEM_BOND_DEF_STEREO_COUNT>
0

> <PUBCHEM_BOND_UDEF_STEREO_COUNT>
0

> <PUBCHEM_ISOTOPIC_ATOM_COUNT>
0

> <PUBCHEM_COMPONENT_COUNT>
1

> <PUBCHEM_CACTVS_TAUTO_COUNT>
14

> <PUBCHEM_CONFORMER_ID>
000033C200000001

> <PUBCHEM_MMFF94_ENERGY>
31.9185

> <PUBCHEM_FEATURE_SELFOVERLAP>
25.381

> <PUBCHEM_SHAPE_FINGERPRINT>
10130415 120 18342180019797622314
10608611 8 18339925913966222553
10967382 1 18410855481634653284
10980938 120 18412262856597444803
11471102 20 18411141367796004157
116883 192 17972310982677109652
12932764 1 17387411238276055163
13380535 21 18341604863742220455
13380535 76 18410012117909979855
13571099 22 18261390069972907566
13922767 16 18410295847765353617
14144814 61 18409164433083443371
14325111 11 18266741272906416357
14648413 74 18340765931864088265
14897335 6 18408608033013267999
15442244 35 18337109085139422305
15775835 57 18413103935742661639
16945 1 18338517443728670342
18186145 218 18335418015224158501
20606313 2 18410293635461485837
20645477 70 18336265746968365943
20871998 22 18118401989180685358
21501502 16 18339647715822815959
23402539 116 18116164435556911903
23402655 69 18334019419301413125
25 1 18342459231226139622
2748010 2 17763176943639960380
5104073 3 18411418419193907531
528886 8 18409735032115272922
53812653 166 18335987471831584704
7364860 26 18334857191068578024
74978 22 18409445865063215975
7832392 63 18336267859922944093

> <PUBCHEM_SHAPE_MULTIPOLES>
258.77
6.83
2.11
0.58
6.36
0.34
0
1.39
-0.01
-0.92
0
0.03
0
0

> <PUBCHEM_SHAPE_SELFOVERLAP>
541.051

> <PUBCHEM_SHAPE_VOLUME>
147.5

> <PUBCHEM_COORDINATE_TYPE>
2
5
10

$$$$

