13057
  -OEChem-06261207423D

 22 23  0     0  0  0  0  0  0999 V2000
   -3.4889    0.5447   -0.0031 O   0  5  0  0  0  0  0  0  0  0  0  0
   -2.6047   -1.4646   -0.0010 O   0  0  0  0  0  0  0  0  0  0  0  0
   -2.4958   -0.2175   -0.0006 N   0  3  0  0  0  0  0  0  0  0  0  0
    2.5443    2.2883   -0.0028 N   0  0  0  0  0  0  0  0  0  0  0  0
   -0.0284   -0.4316    0.0013 C   0  0  0  0  0  0  0  0  0  0  0  0
    1.2374    0.2014    0.0003 C   0  0  0  0  0  0  0  0  0  0  0  0
   -1.1906    0.3569    0.0023 C   0  0  0  0  0  0  0  0  0  0  0  0
    1.3038    1.6042    0.0002 C   0  0  0  0  0  0  0  0  0  0  0  0
   -0.0948   -1.8344    0.0012 C   0  0  0  0  0  0  0  0  0  0  0  0
    2.3996   -0.5871   -0.0008 C   0  0  0  0  0  0  0  0  0  0  0  0
   -1.1058    1.7495    0.0022 C   0  0  0  0  0  0  0  0  0  0  0  0
    0.1389    2.3720    0.0012 C   0  0  0  0  0  0  0  0  0  0  0  0
    1.0701   -2.6022    0.0002 C   0  0  0  0  0  0  0  0  0  0  0  0
    2.3149   -1.9797   -0.0007 C   0  0  0  0  0  0  0  0  0  0  0  0
   -0.9518   -2.4838    0.0033 H   0  0  0  0  0  0  0  0  0  0  0  0
    3.3978   -0.1604   -0.0016 H   0  0  0  0  0  0  0  0  0  0  0  0
   -1.9843    2.3900    0.0024 H   0  0  0  0  0  0  0  0  0  0  0  0
    0.1882    3.4582    0.0007 H   0  0  0  0  0  0  0  0  0  0  0  0
    1.0097   -3.6870    0.0005 H   0  0  0  0  0  0  0  0  0  0  0  0
    3.2210   -2.5786   -0.0014 H   0  0  0  0  0  0  0  0  0  0  0  0
    2.5479    3.3004   -0.0007 H   0  0  0  0  0  0  0  0  0  0  0  0
    3.4280    1.8026    0.0011 H   0  0  0  0  0  0  0  0  0  0  0  0
  1  3  1  0  0  0  0
  2  3  2  0  0  0  0
  3  7  1  0  0  0  0
  4  8  1  0  0  0  0
  4 21  1  0  0  0  0
  4 22  1  0  0  0  0
  5  6  1  0  0  0  0
  5  7  1  0  0  0  0
  5  9  2  0  0  0  0
  6  8  1  0  0  0  0
  6 10  2  0  0  0  0
  7 11  2  0  0  0  0
  8 12  2  0  0  0  0
  9 13  1  0  0  0  0
  9 15  1  0  0  0  0
 10 14  1  0  0  0  0
 10 16  1  0  0  0  0
 11 12  1  0  0  0  0
 11 17  1  0  0  0  0
 12 18  1  0  0  0  0
 13 14  2  0  0  0  0
 13 19  1  0  0  0  0
 14 20  1  0  0  0  0
M  CHG  2   1  -1   3   1
M  END
> <PUBCHEM_COMPOUND_CID>
13057

> <PUBCHEM_CONFORMER_RMSD>
0.4

> <PUBCHEM_CONFORMER_DIVERSEORDER>
1

> <PUBCHEM_MMFF94_PARTIAL_CHARGES>
20
1 -0.52
10 -0.15
11 -0.15
12 -0.15
13 -0.15
14 -0.15
15 0.15
16 0.15
17 0.15
18 0.15
19 0.15
2 -0.52
20 0.15
21 0.4
22 0.4
3 0.91
4 -0.9
7 0.13
8 0.1
9 -0.15

> <PUBCHEM_EFFECTIVE_ROTOR_COUNT>
1

> <PUBCHEM_PHARMACOPHORE_FEATURES>
7
1 1 acceptor
1 1 anion
1 2 acceptor
1 4 cation
1 4 donor
6 5 6 7 8 11 12 rings
6 5 6 9 10 13 14 rings

> <PUBCHEM_HEAVY_ATOM_COUNT>
14

> <PUBCHEM_ATOM_DEF_STEREO_COUNT>
0

> <PUBCHEM_ATOM_UDEF_STEREO_COUNT>
0

> <PUBCHEM_BOND_DEF_STEREO_COUNT>
0

> <PUBCHEM_BOND_UDEF_STEREO_COUNT>
0

> <PUBCHEM_ISOTOPIC_ATOM_COUNT>
0

> <PUBCHEM_COMPONENT_COUNT>
1

> <PUBCHEM_CACTVS_TAUTO_COUNT>
1

> <PUBCHEM_CONFORMER_ID>
0000330100000001

> <PUBCHEM_MMFF94_ENERGY>
72.5392

> <PUBCHEM_FEATURE_SELFOVERLAP>
35.628

> <PUBCHEM_SHAPE_FINGERPRINT>
10967382 1 18410855464449528837
11471102 20 18339647844914304621
12382932 28 17761219112609843922
12423570 1 17125622227007877852
13140716 1 18411136909356252603
13380535 76 18122630448728303858
15001771 113 18120650485673675640
16945 1 18338516468428215778
17990270 104 18412265038493754235
193761 8 18266460004120148196
20645476 183 17484511244971828060
20645477 70 18411144615324393823
20871998 184 17611759193979154734
2334 1 18266459797818838467
23388829 49 18335717068974477950
23402539 116 17399538099736938285
23526114 1 18338518543024078927
23552423 10 18412260657568882069
23559900 14 15450868299013056998
241688 4 17906733961739248840
2748010 2 18267582416386517270
2897 32 18266741272800830525
54173680 148 17330272187065381666
7364860 26 18407760347992000760
81228 2 17689152735099928138

> <PUBCHEM_SHAPE_MULTIPOLES>
266.41
3.8
3.01
0.59
1.78
0.79
0
-1.15
0
-1.11
0
-0.05
0
0

> <PUBCHEM_SHAPE_SELFOVERLAP>
589.433

> <PUBCHEM_SHAPE_VOLUME>
143.5

> <PUBCHEM_COORDINATE_TYPE>
2
5
10

$$$$

