6210
  -OEChem-06261201112D

 15 15  0     0  0  0  0  0  0999 V2000
    3.0878   -0.8639    0.0000 N   0  0  0  0  0  0  0  0  0  0  0  0
    2.2788   -0.2761    0.0000 N   0  0  0  0  0  0  0  0  0  0  0  0
    3.8968   -0.2761    0.0000 C   0  0  0  0  0  0  0  0  0  0  0  0
    2.5878    0.6749    0.0000 C   0  0  0  0  0  0  0  0  0  0  0  0
    3.5878    0.6749    0.0000 C   0  0  0  0  0  0  0  0  0  0  0  0
    4.8479   -0.5852    0.0000 C   0  0  0  0  0  0  0  0  0  0  0  0
    2.0000    1.4839    0.0000 C   0  0  0  0  0  0  0  0  0  0  0  0
    3.9522    1.1765    0.0000 H   0  0  0  0  0  0  0  0  0  0  0  0
    3.0878   -1.4839    0.0000 H   0  0  0  0  0  0  0  0  0  0  0  0
    4.6563   -1.1748    0.0000 H   0  0  0  0  0  0  0  0  0  0  0  0
    5.4375   -0.7768    0.0000 H   0  0  0  0  0  0  0  0  0  0  0  0
    5.0395    0.0045    0.0000 H   0  0  0  0  0  0  0  0  0  0  0  0
    2.5016    1.8484    0.0000 H   0  0  0  0  0  0  0  0  0  0  0  0
    1.6356    1.9855    0.0000 H   0  0  0  0  0  0  0  0  0  0  0  0
    1.4984    1.1195    0.0000 H   0  0  0  0  0  0  0  0  0  0  0  0
  1  2  1  0  0  0  0
  1  3  1  0  0  0  0
  1  9  1  0  0  0  0
  2  4  2  0  0  0  0
  3  5  2  0  0  0  0
  3  6  1  0  0  0  0
  4  5  1  0  0  0  0
  4  7  1  0  0  0  0
  5  8  1  0  0  0  0
  6 10  1  0  0  0  0
  6 11  1  0  0  0  0
  6 12  1  0  0  0  0
  7 13  1  0  0  0  0
  7 14  1  0  0  0  0
  7 15  1  0  0  0  0
M  END
> <PUBCHEM_COMPOUND_CID>
6210

> <PUBCHEM_COMPOUND_CANONICALIZED>
1

> <PUBCHEM_CACTVS_COMPLEXITY>
63.1

> <PUBCHEM_CACTVS_HBOND_ACCEPTOR>
1

> <PUBCHEM_CACTVS_HBOND_DONOR>
1

> <PUBCHEM_CACTVS_ROTATABLE_BOND>
0

> <PUBCHEM_CACTVS_SUBSKEYS>
AAADccBjAAAAAAAAAAAAAAAAAAAAAWAAAAAAAAAAAAAAAAABgAAAHAAYAAAACAiBFgAygJBjAACiASRiQACQBAAgAgAQOSAwZBgAIAIAwdAAhABgGAAISAIAAAAAAAAAAAAAAAAAAAAAAAAAAAAAAAAAAA==

> <PUBCHEM_IUPAC_OPENEYE_NAME>
3,5-dimethyl-1H-pyrazole

> <PUBCHEM_IUPAC_CAS_NAME>
3,5-dimethyl-1H-pyrazole

> <PUBCHEM_IUPAC_NAME>
3,5-dimethyl-1H-pyrazole

> <PUBCHEM_IUPAC_SYSTEMATIC_NAME>
3,5-dimethyl-1H-pyrazole

> <PUBCHEM_IUPAC_TRADITIONAL_NAME>
3,5-dimethyl-1H-pyrazole

> <PUBCHEM_IUPAC_INCHI>
InChI=1S/C5H8N2/c1-4-3-5(2)7-6-4/h3H,1-2H3,(H,6,7)

> <PUBCHEM_IUPAC_INCHIKEY>
SDXAWLJRERMRKF-UHFFFAOYSA-N

> <PUBCHEM_XLOGP3>
1

> <PUBCHEM_EXACT_MASS>
96.068748

> <PUBCHEM_MOLECULAR_FORMULA>
C5H8N2

> <PUBCHEM_MOLECULAR_WEIGHT>
96.13042

> <PUBCHEM_OPENEYE_CAN_SMILES>
CC1=CC(=NN1)C

> <PUBCHEM_OPENEYE_ISO_SMILES>
CC1=CC(=NN1)C

> <PUBCHEM_CACTVS_TPSA>
28.7

> <PUBCHEM_MONOISOTOPIC_WEIGHT>
96.068748

> <PUBCHEM_TOTAL_CHARGE>
0

> <PUBCHEM_HEAVY_ATOM_COUNT>
7

> <PUBCHEM_ATOM_DEF_STEREO_COUNT>
0

> <PUBCHEM_ATOM_UDEF_STEREO_COUNT>
0

> <PUBCHEM_BOND_DEF_STEREO_COUNT>
0

> <PUBCHEM_BOND_UDEF_STEREO_COUNT>
0

> <PUBCHEM_ISOTOPIC_ATOM_COUNT>
0

> <PUBCHEM_COMPONENT_COUNT>
1

> <PUBCHEM_CACTVS_TAUTO_COUNT>
1

> <PUBCHEM_COORDINATE_TYPE>
1
5
255

> <PUBCHEM_BONDANNOTATIONS>
1  2  8
1  3  8
2  4  8
3  5  8
4  5  8

$$$$

