9817
  -OEChem-06261204053D

 15 15  0     0  0  0  0  0  0999 V2000
   -3.2996    1.7423   -0.0014 Br  0  0  0  0  0  0  0  0  0  0  0  0
    2.7100   -0.7938   -0.0009 F   0  0  0  0  0  0  0  0  0  0  0  0
    2.1912    1.0123   -1.0838 F   0  0  0  0  0  0  0  0  0  0  0  0
    2.1708    1.0080    1.0906 F   0  0  0  0  0  0  0  0  0  0  0  0
    0.4053   -0.1525   -0.0001 C   0  0  0  0  0  0  0  0  0  0  0  0
   -0.5988    0.8158   -0.0010 C   0  0  0  0  0  0  0  0  0  0  0  0
    0.0689   -1.5062    0.0002 C   0  0  0  0  0  0  0  0  0  0  0  0
    1.8392    0.2585   -0.0007 C   0  0  0  0  0  0  0  0  0  0  0  0
   -1.9393    0.4304   -0.0015 C   0  0  0  0  0  0  0  0  0  0  0  0
   -1.2718   -1.8916   -0.0002 C   0  0  0  0  0  0  0  0  0  0  0  0
   -2.2759   -0.9233   -0.0011 C   0  0  0  0  0  0  0  0  0  0  0  0
   -0.3292    1.8695   -0.0014 H   0  0  0  0  0  0  0  0  0  0  0  0
    0.8364   -2.2752    0.0007 H   0  0  0  0  0  0  0  0  0  0  0  0
   -1.5339   -2.9456    0.0000 H   0  0  0  0  0  0  0  0  0  0  0  0
   -3.3155   -1.2405   -0.0013 H   0  0  0  0  0  0  0  0  0  0  0  0
  1  9  1  0  0  0  0
  2  8  1  0  0  0  0
  3  8  1  0  0  0  0
  4  8  1  0  0  0  0
  5  6  2  0  0  0  0
  5  7  1  0  0  0  0
  5  8  1  0  0  0  0
  6  9  1  0  0  0  0
  6 12  1  0  0  0  0
  7 10  2  0  0  0  0
  7 13  1  0  0  0  0
  9 11  2  0  0  0  0
 10 11  1  0  0  0  0
 10 14  1  0  0  0  0
 11 15  1  0  0  0  0
M  END
> <PUBCHEM_COMPOUND_CID>
9817

> <PUBCHEM_CONFORMER_RMSD>
0.4

> <PUBCHEM_CONFORMER_DIVERSEORDER>
1

> <PUBCHEM_MMFF94_PARTIAL_CHARGES>
15
1 -0.11
10 -0.15
11 -0.15
12 0.15
13 0.15
14 0.15
15 0.15
2 -0.34
3 -0.34
4 -0.34
5 -0.14
6 -0.15
7 -0.15
8 1.16
9 0.11

> <PUBCHEM_EFFECTIVE_ROTOR_COUNT>
1

> <PUBCHEM_PHARMACOPHORE_FEATURES>
2
1 1 hydrophobe
6 5 6 7 9 10 11 rings

> <PUBCHEM_HEAVY_ATOM_COUNT>
11

> <PUBCHEM_ATOM_DEF_STEREO_COUNT>
0

> <PUBCHEM_ATOM_UDEF_STEREO_COUNT>
0

> <PUBCHEM_BOND_DEF_STEREO_COUNT>
0

> <PUBCHEM_BOND_UDEF_STEREO_COUNT>
0

> <PUBCHEM_ISOTOPIC_ATOM_COUNT>
0

> <PUBCHEM_COMPONENT_COUNT>
1

> <PUBCHEM_CACTVS_TAUTO_COUNT>
1

> <PUBCHEM_CONFORMER_ID>
0000265900000001

> <PUBCHEM_MMFF94_ENERGY>
17.1437

> <PUBCHEM_FEATURE_SELFOVERLAP>
10.148

> <PUBCHEM_SHAPE_FINGERPRINT>
1 1 18193280921296415607
12716758 59 18407761425997150163
12932764 1 17968371239051504998
13380535 76 18338519767527770431
14325111 11 18410575102075167109
15775835 57 18412822520816566641
16945 1 18194402191117730115
193761 8 14303573244311681573
19973954 147 18337391517709386001
20645464 45 17895480215394719986
20653085 51 18343007909135105129
21028194 46 18336263530817514249
21040471 1 18410856568382769923
21524375 3 18338238296882716469
23235685 24 18339928233074489117
23402655 69 18119825853029341741
23552423 10 18273215261890528258
23559900 14 18187924019832640702
2748010 2 18338509837436814167
3248919 1 17988368065621030954
369184 2 18041000587826063851
5084963 1 18342458144631101186
81228 2 18195252118222773811

> <PUBCHEM_SHAPE_MULTIPOLES>
210.5
4.36
1.88
0.75
0.57
0.53
0
-2.13
-0.01
0.8
0
-0.24
-0.19
0

> <PUBCHEM_SHAPE_SELFOVERLAP>
427.729

> <PUBCHEM_SHAPE_VOLUME>
126.5

> <PUBCHEM_COORDINATE_TYPE>
2
5
10

$$$$

