17396540
  -OEChem-06241222572D

 46 47  0     0  0  0  0  0  0999 V2000
    5.4641    0.6830    0.0000 O   0  0  0  0  0  0  0  0  0  0  0  0
    8.8141    4.4035    0.0000 O   0  0  0  0  0  0  0  0  0  0  0  0
    4.5981    2.1830    0.0000 O   0  0  0  0  0  0  0  0  0  0  0  0
    7.2318    5.1080    0.0000 O   0  0  0  0  0  0  0  0  0  0  0  0
    2.0000   -4.3170    0.0000 O   0  0  0  0  0  0  0  0  0  0  0  0
    5.4641   -1.3170    0.0000 O   0  0  0  0  0  0  0  0  0  0  0  0
    7.2437    1.7762    0.0000 N   0  0  0  0  0  0  0  0  0  0  0  0
    3.7320   -1.3170    0.0000 N   0  0  0  0  0  0  0  0  0  0  0  0
    6.4347    3.1775    0.0000 C   0  0  0  0  0  0  0  0  0  0  0  0
    7.4128    3.3854    0.0000 C   0  0  0  0  0  0  0  0  0  0  0  0
    7.9128    2.5194    0.0000 C   0  0  0  0  0  0  0  0  0  0  0  0
    6.3301    2.1830    0.0000 C   0  0  0  0  0  0  0  0  0  0  0  0
    5.6915    3.8466    0.0000 C   0  0  0  0  0  0  0  0  0  0  0  0
    8.9073    2.4148    0.0000 C   0  0  0  0  0  0  0  0  0  0  0  0
    5.4641    1.6830    0.0000 C   0  0  0  0  0  0  0  0  0  0  0  0
    7.8195    4.2989    0.0000 C   0  0  0  0  0  0  0  0  0  0  0  0
    4.5981    0.1830    0.0000 C   0  0  0  0  0  0  0  0  0  0  0  0
    3.7320   -2.3170    0.0000 C   0  0  0  0  0  0  0  0  0  0  0  0
    4.5981   -0.8170    0.0000 C   0  0  0  0  0  0  0  0  0  0  0  0
    2.8660   -2.8170    0.0000 C   0  0  0  0  0  0  0  0  0  0  0  0
    4.5981   -2.8170    0.0000 C   0  0  0  0  0  0  0  0  0  0  0  0
    2.8660   -3.8170    0.0000 C   0  0  0  0  0  0  0  0  0  0  0  0
    4.5981   -3.8170    0.0000 C   0  0  0  0  0  0  0  0  0  0  0  0
    3.7320   -4.3170    0.0000 C   0  0  0  0  0  0  0  0  0  0  0  0
    9.2208    5.3170    0.0000 C   0  0  0  0  0  0  0  0  0  0  0  0
    2.0000   -5.3170    0.0000 C   0  0  0  0  0  0  0  0  0  0  0  0
    7.3726    1.1698    0.0000 H   0  0  0  0  0  0  0  0  0  0  0  0
    6.1064    4.3074    0.0000 H   0  0  0  0  0  0  0  0  0  0  0  0
    5.2308    4.2615    0.0000 H   0  0  0  0  0  0  0  0  0  0  0  0
    5.2766    3.3859    0.0000 H   0  0  0  0  0  0  0  0  0  0  0  0
    8.8425    1.7982    0.0000 H   0  0  0  0  0  0  0  0  0  0  0  0
    9.5239    2.3500    0.0000 H   0  0  0  0  0  0  0  0  0  0  0  0
    8.9721    3.0315    0.0000 H   0  0  0  0  0  0  0  0  0  0  0  0
    4.3860    0.7656    0.0000 H   0  0  0  0  0  0  0  0  0  0  0  0
    3.9875    0.0753    0.0000 H   0  0  0  0  0  0  0  0  0  0  0  0
    3.1951   -1.0070    0.0000 H   0  0  0  0  0  0  0  0  0  0  0  0
    2.3291   -2.5070    0.0000 H   0  0  0  0  0  0  0  0  0  0  0  0
    5.1350   -2.5070    0.0000 H   0  0  0  0  0  0  0  0  0  0  0  0
    5.1350   -4.1270    0.0000 H   0  0  0  0  0  0  0  0  0  0  0  0
    3.7320   -4.9370    0.0000 H   0  0  0  0  0  0  0  0  0  0  0  0
    9.7872    5.0648    0.0000 H   0  0  0  0  0  0  0  0  0  0  0  0
    9.4730    5.8834    0.0000 H   0  0  0  0  0  0  0  0  0  0  0  0
    8.6544    5.5692    0.0000 H   0  0  0  0  0  0  0  0  0  0  0  0
    1.3800   -5.3170    0.0000 H   0  0  0  0  0  0  0  0  0  0  0  0
    2.0000   -5.9370    0.0000 H   0  0  0  0  0  0  0  0  0  0  0  0
    2.6200   -5.3170    0.0000 H   0  0  0  0  0  0  0  0  0  0  0  0
  1 15  1  0  0  0  0
  1 17  1  0  0  0  0
  2 16  1  0  0  0  0
  2 25  1  0  0  0  0
  3 15  2  0  0  0  0
  4 16  2  0  0  0  0
  5 22  1  0  0  0  0
  5 26  1  0  0  0  0
  6 19  2  0  0  0  0
  7 11  1  0  0  0  0
  7 12  1  0  0  0  0
  7 27  1  0  0  0  0
  8 18  1  0  0  0  0
  8 19  1  0  0  0  0
  8 36  1  0  0  0  0
  9 10  1  0  0  0  0
  9 12  2  0  0  0  0
  9 13  1  0  0  0  0
 10 11  2  0  0  0  0
 10 16  1  0  0  0  0
 11 14  1  0  0  0  0
 12 15  1  0  0  0  0
 13 28  1  0  0  0  0
 13 29  1  0  0  0  0
 13 30  1  0  0  0  0
 14 31  1  0  0  0  0
 14 32  1  0  0  0  0
 14 33  1  0  0  0  0
 17 19  1  0  0  0  0
 17 34  1  0  0  0  0
 17 35  1  0  0  0  0
 18 20  2  0  0  0  0
 18 21  1  0  0  0  0
 20 22  1  0  0  0  0
 20 37  1  0  0  0  0
 21 23  2  0  0  0  0
 21 38  1  0  0  0  0
 22 24  2  0  0  0  0
 23 24  1  0  0  0  0
 23 39  1  0  0  0  0
 24 40  1  0  0  0  0
 25 41  1  0  0  0  0
 25 42  1  0  0  0  0
 25 43  1  0  0  0  0
 26 44  1  0  0  0  0
 26 45  1  0  0  0  0
 26 46  1  0  0  0  0
M  END
> <PUBCHEM_COMPOUND_CID>
17396540

> <PUBCHEM_COMPOUND_CANONICALIZED>
1

> <PUBCHEM_CACTVS_COMPLEXITY>
526

> <PUBCHEM_CACTVS_HBOND_ACCEPTOR>
6

> <PUBCHEM_CACTVS_HBOND_DONOR>
2

> <PUBCHEM_CACTVS_ROTATABLE_BOND>
8

> <PUBCHEM_CACTVS_SUBSKEYS>
AAADceB7OAAAAAAAAAAAAAAAAAAAAWAAAAAwAAAAAAAAAAABwAAAHgAQAAAADAyhngIyzpLJlACoAyXyXAaCiCAnIiAImSH2bNgOJnrEtb+HMahm1BnY6Ue8fwsegAAAAgAAAAAAAAAEAAAAAAAAAAAAAA==

> <PUBCHEM_IUPAC_OPENEYE_NAME>
O2-[2-(3-methoxyanilino)-2-oxo-ethyl] O4-methyl 3,5-dimethyl-1H-pyrrole-2,4-dicarboxylate

> <PUBCHEM_IUPAC_CAS_NAME>
3,5-dimethyl-1H-pyrrole-2,4-dicarboxylic acid O2-[2-(3-methoxyanilino)-2-oxoethyl] ester O4-methyl ester

> <PUBCHEM_IUPAC_NAME>
2-O-[2-(3-methoxyanilino)-2-oxoethyl] 4-O-methyl 3,5-dimethyl-1H-pyrrole-2,4-dicarboxylate

> <PUBCHEM_IUPAC_SYSTEMATIC_NAME>
O2-[2-[(3-methoxyphenyl)amino]-2-oxidanylidene-ethyl] O4-methyl 3,5-dimethyl-1H-pyrrole-2,4-dicarboxylate

> <PUBCHEM_IUPAC_TRADITIONAL_NAME>
3,5-dimethyl-1H-pyrrole-2,4-dicarboxylic acid O2-[2-keto-2-(m-anisidino)ethyl] ester O4-methyl ester

> <PUBCHEM_IUPAC_INCHI>
InChI=1S/C18H20N2O6/c1-10-15(17(22)25-4)11(2)19-16(10)18(23)26-9-14(21)20-12-6-5-7-13(8-12)24-3/h5-8,19H,9H2,1-4H3,(H,20,21)

> <PUBCHEM_IUPAC_INCHIKEY>
PPRBKAUTOZNJCB-UHFFFAOYSA-N

> <PUBCHEM_XLOGP3_AA>
2.4

> <PUBCHEM_EXACT_MASS>
360.132136

> <PUBCHEM_MOLECULAR_FORMULA>
C18H20N2O6

> <PUBCHEM_MOLECULAR_WEIGHT>
360.3612

> <PUBCHEM_OPENEYE_CAN_SMILES>
CC1=C(NC(=C1C(=O)OC)C)C(=O)OCC(=O)NC2=CC(=CC=C2)OC

> <PUBCHEM_OPENEYE_ISO_SMILES>
CC1=C(NC(=C1C(=O)OC)C)C(=O)OCC(=O)NC2=CC(=CC=C2)OC

> <PUBCHEM_CACTVS_TPSA>
107

> <PUBCHEM_MONOISOTOPIC_WEIGHT>
360.132136

> <PUBCHEM_TOTAL_CHARGE>
0

> <PUBCHEM_HEAVY_ATOM_COUNT>
26

> <PUBCHEM_ATOM_DEF_STEREO_COUNT>
0

> <PUBCHEM_ATOM_UDEF_STEREO_COUNT>
0

> <PUBCHEM_BOND_DEF_STEREO_COUNT>
0

> <PUBCHEM_BOND_UDEF_STEREO_COUNT>
0

> <PUBCHEM_ISOTOPIC_ATOM_COUNT>
0

> <PUBCHEM_COMPONENT_COUNT>
1

> <PUBCHEM_CACTVS_TAUTO_COUNT>
30

> <PUBCHEM_COORDINATE_TYPE>
1
5
255

> <PUBCHEM_BONDANNOTATIONS>
10  11  8
18  20  8
18  21  8
20  22  8
21  23  8
22  24  8
23  24  8
7  11  8
7  12  8
9  10  8
9  12  8

$$$$

