5020
  -OEChem-06261200282D

 38 41  0     1  0  0  0  0  0999 V2000
    6.9464    2.6270    0.0000 O   0  0  0  0  0  0  0  0  0  0  0  0
    4.3198    1.0924    0.0000 O   0  0  0  0  0  0  0  0  0  0  0  0
    2.5381    0.0819    0.0000 O   0  0  0  0  0  0  0  0  0  0  0  0
    7.7925   -1.9391    0.0000 N   0  0  3  0  0  0  0  0  0  0  0  0
    6.9343   -1.4422    0.0000 C   0  0  3  0  0  0  0  0  0  0  0  0
    6.9343   -0.4422    0.0000 C   0  0  0  0  0  0  0  0  0  0  0  0
    6.0682   -1.9422    0.0000 C   0  0  0  0  0  0  0  0  0  0  0  0
    7.8443    0.0646    0.0000 C   0  0  0  0  0  0  0  0  0  0  0  0
    8.6580   -1.4550    0.0000 C   0  0  0  0  0  0  0  0  0  0  0  0
    8.6836   -0.4636    0.0000 C   0  0  0  0  0  0  0  0  0  0  0  0
    6.0682    0.0578    0.0000 C   0  0  0  0  0  0  0  0  0  0  0  0
    5.2022   -1.4422    0.0000 C   0  0  0  0  0  0  0  0  0  0  0  0
    5.2022   -0.4422    0.0000 C   0  0  0  0  0  0  0  0  0  0  0  0
    7.7851   -2.9391    0.0000 C   0  0  0  0  0  0  0  0  0  0  0  0
    7.8523    1.1062    0.0000 C   0  0  0  0  0  0  0  0  0  0  0  0
    6.0522    1.0993    0.0000 C   0  0  0  0  0  0  0  0  0  0  0  0
    6.9502    1.6271    0.0000 C   0  0  0  0  0  0  0  0  0  0  0  0
    4.3083   -1.9769    0.0000 C   0  0  0  0  0  0  0  0  0  0  0  0
    4.3083    0.0925    0.0000 C   0  0  0  0  0  0  0  0  0  0  0  0
    3.4022   -0.4214    0.0000 C   0  0  0  0  0  0  0  0  0  0  0  0
    3.4022   -1.4630    0.0000 C   0  0  0  0  0  0  0  0  0  0  0  0
    6.9337   -2.2922    0.0000 H   0  0  0  0  0  0  0  0  0  0  0  0
    5.6697   -2.4172    0.0000 H   0  0  0  0  0  0  0  0  0  0  0  0
    6.4668   -2.4172    0.0000 H   0  0  0  0  0  0  0  0  0  0  0  0
    8.8597   -2.0412    0.0000 H   0  0  0  0  0  0  0  0  0  0  0  0
    9.2708   -1.3606    0.0000 H   0  0  0  0  0  0  0  0  0  0  0  0
    9.2907   -0.5895    0.0000 H   0  0  0  0  0  0  0  0  0  0  0  0
    8.9154    0.1115    0.0000 H   0  0  0  0  0  0  0  0  0  0  0  0
    7.1651   -2.9345    0.0000 H   0  0  0  0  0  0  0  0  0  0  0  0
    7.7805   -3.5591    0.0000 H   0  0  0  0  0  0  0  0  0  0  0  0
    8.4051   -2.9437    0.0000 H   0  0  0  0  0  0  0  0  0  0  0  0
    8.3904    1.4142    0.0000 H   0  0  0  0  0  0  0  0  0  0  0  0
    5.5117    1.4031    0.0000 H   0  0  0  0  0  0  0  0  0  0  0  0
    4.3154   -2.5968    0.0000 H   0  0  0  0  0  0  0  0  0  0  0  0
    2.8665   -1.7751    0.0000 H   0  0  0  0  0  0  0  0  0  0  0  0
    7.4821    2.9391    0.0000 H   0  0  0  0  0  0  0  0  0  0  0  0
    3.7865    1.4086    0.0000 H   0  0  0  0  0  0  0  0  0  0  0  0
    2.0000   -0.2260    0.0000 H   0  0  0  0  0  0  0  0  0  0  0  0
  1 17  1  0  0  0  0
  1 36  1  0  0  0  0
  2 19  1  0  0  0  0
  2 37  1  0  0  0  0
  3 20  1  0  0  0  0
  3 38  1  0  0  0  0
  4  5  1  0  0  0  0
  4  9  1  0  0  0  0
  4 14  1  0  0  0  0
  5  6  1  0  0  0  0
  5  7  1  0  0  0  0
  5 22  1  0  0  0  0
  6  8  2  0  0  0  0
  6 11  1  0  0  0  0
  7 12  1  0  0  0  0
  7 23  1  0  0  0  0
  7 24  1  0  0  0  0
  8 10  1  0  0  0  0
  8 15  1  0  0  0  0
  9 10  1  0  0  0  0
  9 25  1  0  0  0  0
  9 26  1  0  0  0  0
 10 27  1  0  0  0  0
 10 28  1  0  0  0  0
 11 13  1  0  0  0  0
 11 16  2  0  0  0  0
 12 13  2  0  0  0  0
 12 18  1  0  0  0  0
 13 19  1  0  0  0  0
 14 29  1  0  0  0  0
 14 30  1  0  0  0  0
 14 31  1  0  0  0  0
 15 17  2  0  0  0  0
 15 32  1  0  0  0  0
 16 17  1  0  0  0  0
 16 33  1  0  0  0  0
 18 21  2  0  0  0  0
 18 34  1  0  0  0  0
 19 20  2  0  0  0  0
 20 21  1  0  0  0  0
 21 35  1  0  0  0  0
M  END
> <PUBCHEM_COMPOUND_CID>
5020

> <PUBCHEM_COMPOUND_CANONICALIZED>
1

> <PUBCHEM_CACTVS_COMPLEXITY>
404

> <PUBCHEM_CACTVS_HBOND_ACCEPTOR>
4

> <PUBCHEM_CACTVS_HBOND_DONOR>
3

> <PUBCHEM_CACTVS_ROTATABLE_BOND>
0

> <PUBCHEM_CACTVS_SUBSKEYS>
AAADceB6MAAAAAAAAAAAAAAAAAAAAAAAAAA8YMEAAAAAAADxQAAAHgAACAAADCzBmAQyBoMAAgCAAiBCAACCAAAgIAAIiAAOjIgJJiKCkROEcAlkwBGJmAeQ8PcOoAADAAAYQADQAAaAADSAAAAAAAAAAA==

> <PUBCHEM_IUPAC_OPENEYE_NAME>
7-methyl-5,6,6a,7-tetrahydro-4H-dibenzo[de,g]quinoline-2,13,14-triol

> <PUBCHEM_IUPAC_CAS_NAME>
7-methyl-5,6,6a,7-tetrahydro-4H-dibenzo[de,g]quinoline-2,13,14-triol

> <PUBCHEM_IUPAC_NAME>
7-methyl-5,6,6a,7-tetrahydro-4H-dibenzo[de,g]quinoline-2,13,14-triol

> <PUBCHEM_IUPAC_SYSTEMATIC_NAME>
7-methyl-5,6,6a,7-tetrahydro-4H-dibenzo[de,g]quinoline-2,13,14-triol

> <PUBCHEM_IUPAC_TRADITIONAL_NAME>
7-methyl-5,6,6a,7-tetrahydro-4H-dibenzo[de,g]quinoline-2,13,14-triol

> <PUBCHEM_IUPAC_INCHI>
InChI=1S/C17H17NO3/c1-18-5-4-10-6-11(19)8-12-15(10)13(18)7-9-2-3-14(20)17(21)16(9)12/h2-3,6,8,13,19-21H,4-5,7H2,1H3

> <PUBCHEM_IUPAC_INCHIKEY>
QNBCPLWFVGLFHO-UHFFFAOYSA-N

> <PUBCHEM_XLOGP3>
1.9

> <PUBCHEM_EXACT_MASS>
283.120843

> <PUBCHEM_MOLECULAR_FORMULA>
C17H17NO3

> <PUBCHEM_MOLECULAR_WEIGHT>
283.32178

> <PUBCHEM_OPENEYE_CAN_SMILES>
CN1CCC2=C3C1CC4=C(C3=CC(=C2)O)C(=C(C=C4)O)O

> <PUBCHEM_OPENEYE_ISO_SMILES>
CN1CCC2=C3C1CC4=C(C3=CC(=C2)O)C(=C(C=C4)O)O

> <PUBCHEM_CACTVS_TPSA>
63.9

> <PUBCHEM_MONOISOTOPIC_WEIGHT>
283.120843

> <PUBCHEM_TOTAL_CHARGE>
0

> <PUBCHEM_HEAVY_ATOM_COUNT>
21

> <PUBCHEM_ATOM_DEF_STEREO_COUNT>
0

> <PUBCHEM_ATOM_UDEF_STEREO_COUNT>
1

> <PUBCHEM_BOND_DEF_STEREO_COUNT>
0

> <PUBCHEM_BOND_UDEF_STEREO_COUNT>
0

> <PUBCHEM_ISOTOPIC_ATOM_COUNT>
0

> <PUBCHEM_COMPONENT_COUNT>
1

> <PUBCHEM_CACTVS_TAUTO_COUNT>
268

> <PUBCHEM_COORDINATE_TYPE>
1
5
255

> <PUBCHEM_BONDANNOTATIONS>
11  16  8
12  13  8
12  18  8
13  19  8
15  17  8
16  17  8
18  21  8
19  20  8
20  21  8
5  22  3
6  11  8
6  8  8
8  15  8

$$$$

