12074
  -OEChem-06261206293D

 15 15  0     0  0  0  0  0  0999 V2000
   -2.4226    2.0823    0.0020 Cl  0  0  0  0  0  0  0  0  0  0  0  0
   -3.1483   -0.8358   -0.0009 O   0  0  0  0  0  0  0  0  0  0  0  0
    3.1234   -0.8105    0.0013 O   0  5  0  0  0  0  0  0  0  0  0  0
    2.7417    1.3514   -0.0010 O   0  0  0  0  0  0  0  0  0  0  0  0
    2.3337    0.1647    0.0001 N   0  3  0  0  0  0  0  0  0  0  0  0
    0.9355   -0.0822   -0.0004 C   0  0  0  0  0  0  0  0  0  0  0  0
    0.0383    0.9858   -0.0009 C   0  0  0  0  0  0  0  0  0  0  0  0
    0.4592   -1.3933    0.0003 C   0  0  0  0  0  0  0  0  0  0  0  0
   -1.8115   -0.5685   -0.0001 C   0  0  0  0  0  0  0  0  0  0  0  0
   -1.3353    0.7427   -0.0008 C   0  0  0  0  0  0  0  0  0  0  0  0
   -0.9142   -1.6365    0.0005 C   0  0  0  0  0  0  0  0  0  0  0  0
    0.3892    2.0156   -0.0009 H   0  0  0  0  0  0  0  0  0  0  0  0
    1.1286   -2.2498    0.0008 H   0  0  0  0  0  0  0  0  0  0  0  0
   -1.2707   -2.6632    0.0009 H   0  0  0  0  0  0  0  0  0  0  0  0
   -3.2812   -1.7993   -0.0005 H   0  0  0  0  0  0  0  0  0  0  0  0
  1 10  1  0  0  0  0
  2  9  1  0  0  0  0
  2 15  1  0  0  0  0
  3  5  1  0  0  0  0
  4  5  2  0  0  0  0
  5  6  1  0  0  0  0
  6  7  2  0  0  0  0
  6  8  1  0  0  0  0
  7 10  1  0  0  0  0
  7 12  1  0  0  0  0
  8 11  2  0  0  0  0
  8 13  1  0  0  0  0
  9 10  2  0  0  0  0
  9 11  1  0  0  0  0
 11 14  1  0  0  0  0
M  CHG  2   3  -1   5   1
M  END
> <PUBCHEM_COMPOUND_CID>
12074

> <PUBCHEM_CONFORMER_RMSD>
0.4

> <PUBCHEM_CONFORMER_DIVERSEORDER>
1

> <PUBCHEM_MMFF94_PARTIAL_CHARGES>
15
1 -0.18
10 0.18
11 -0.15
12 0.15
13 0.15
14 0.15
15 0.45
2 -0.53
3 -0.52
4 -0.52
5 0.91
6 0.13
7 -0.15
8 -0.15
9 0.08

> <PUBCHEM_EFFECTIVE_ROTOR_COUNT>
1

> <PUBCHEM_PHARMACOPHORE_FEATURES>
5
1 2 donor
1 3 acceptor
1 3 anion
1 4 acceptor
6 6 7 8 9 10 11 rings

> <PUBCHEM_HEAVY_ATOM_COUNT>
11

> <PUBCHEM_ATOM_DEF_STEREO_COUNT>
0

> <PUBCHEM_ATOM_UDEF_STEREO_COUNT>
0

> <PUBCHEM_BOND_DEF_STEREO_COUNT>
0

> <PUBCHEM_BOND_UDEF_STEREO_COUNT>
0

> <PUBCHEM_ISOTOPIC_ATOM_COUNT>
0

> <PUBCHEM_COMPONENT_COUNT>
1

> <PUBCHEM_CACTVS_TAUTO_COUNT>
5

> <PUBCHEM_CONFORMER_ID>
00002F2A00000001

> <PUBCHEM_MMFF94_ENERGY>
29.1347

> <PUBCHEM_FEATURE_SELFOVERLAP>
25.453

> <PUBCHEM_SHAPE_FINGERPRINT>
11206711 2 18410577288355991509
12932764 1 17530971245904436540
13380535 21 18193543695958970111
13380535 76 18194405713180641575
14325111 11 18410575110554429344
16945 1 18338798905509359687
193761 8 18050568744459609511
19973954 147 18410854347995668580
20653085 51 18339349864014311016
20871998 184 18116145576318832335
21040471 1 18338797930551712033
21501502 16 18267869560878496019
23402655 69 18192449674075359261
23552423 10 18343581854373823582
23559900 14 18189330342523377958
241688 4 17976828588356538091
2748010 2 18337949124950175631
369184 2 18334858290237320938
5084963 1 18260266347651323002
6333449 129 18409732906328137309

> <PUBCHEM_SHAPE_MULTIPOLES>
205.66
4.27
1.93
0.59
1.42
0.25
0
0.84
0
-0.84
0
-0.06
0.01
0

> <PUBCHEM_SHAPE_SELFOVERLAP>
424.328

> <PUBCHEM_SHAPE_VOLUME>
119.9

> <PUBCHEM_COORDINATE_TYPE>
2
5
10

$$$$

