17395547
  -OEChem-06241222512D

 49 52  0     0  0  0  0  0  0999 V2000
    4.6783    3.3498    0.0000 S   0  0  0  0  0  0  0  0  0  0  0  0
   11.0406   -3.5451    0.0000 O   0  0  0  0  0  0  0  0  0  0  0  0
   11.0406   -0.0250    0.0000 O   0  0  0  0  0  0  0  0  0  0  0  0
    9.7619   -0.0530    0.0000 O   0  0  0  0  0  0  0  0  0  0  0  0
   10.7619   -1.7850    0.0000 N   0  0  0  0  0  0  0  0  0  0  0  0
   12.3007   -1.2850    0.0000 N   0  0  0  0  0  0  0  0  0  0  0  0
    8.2619   -0.9190    0.0000 N   0  0  0  0  0  0  0  0  0  0  0  0
    4.6783    1.7404    0.0000 N   0  0  0  0  0  0  0  0  0  0  0  0
   12.3007   -2.2850    0.0000 C   0  0  0  0  0  0  0  0  0  0  0  0
   11.3497   -2.5940    0.0000 C   0  0  0  0  0  0  0  0  0  0  0  0
   13.3007   -2.2850    0.0000 C   0  0  0  0  0  0  0  0  0  0  0  0
   12.6097   -3.2361    0.0000 C   0  0  0  0  0  0  0  0  0  0  0  0
   11.3497   -0.9760    0.0000 C   0  0  0  0  0  0  0  0  0  0  0  0
    9.7619   -1.7850    0.0000 C   0  0  0  0  0  0  0  0  0  0  0  0
    9.2619   -0.9190    0.0000 C   0  0  0  0  0  0  0  0  0  0  0  0
    7.7619   -0.0530    0.0000 C   0  0  0  0  0  0  0  0  0  0  0  0
    6.7619    1.6791    0.0000 C   0  0  0  0  0  0  0  0  0  0  0  0
    6.2619    2.5451    0.0000 C   0  0  0  0  0  0  0  0  0  0  0  0
    6.7619   -0.0530    0.0000 C   0  0  0  0  0  0  0  0  0  0  0  0
    8.2619    0.8130    0.0000 C   0  0  0  0  0  0  0  0  0  0  0  0
    6.2619    0.8130    0.0000 C   0  0  0  0  0  0  0  0  0  0  0  0
    7.7619    1.6791    0.0000 C   0  0  0  0  0  0  0  0  0  0  0  0
    5.2619    2.5451    0.0000 C   0  0  0  0  0  0  0  0  0  0  0  0
    3.7320    3.0451    0.0000 C   0  0  0  0  0  0  0  0  0  0  0  0
    3.7320    2.0451    0.0000 C   0  0  0  0  0  0  0  0  0  0  0  0
    2.8660    3.5451    0.0000 C   0  0  0  0  0  0  0  0  0  0  0  0
    2.8660    1.5451    0.0000 C   0  0  0  0  0  0  0  0  0  0  0  0
    2.0000    3.0451    0.0000 C   0  0  0  0  0  0  0  0  0  0  0  0
    2.0000    2.0451    0.0000 C   0  0  0  0  0  0  0  0  0  0  0  0
   12.8023   -0.9206    0.0000 H   0  0  0  0  0  0  0  0  0  0  0  0
   13.3007   -2.9050    0.0000 H   0  0  0  0  0  0  0  0  0  0  0  0
   12.0201   -3.4277    0.0000 H   0  0  0  0  0  0  0  0  0  0  0  0
   12.8013   -3.8257    0.0000 H   0  0  0  0  0  0  0  0  0  0  0  0
   13.1994   -3.0445    0.0000 H   0  0  0  0  0  0  0  0  0  0  0  0
   13.9207   -2.2850    0.0000 H   0  0  0  0  0  0  0  0  0  0  0  0
   13.3007   -1.6650    0.0000 H   0  0  0  0  0  0  0  0  0  0  0  0
    9.1793   -1.9971    0.0000 H   0  0  0  0  0  0  0  0  0  0  0  0
    9.8695   -2.3956    0.0000 H   0  0  0  0  0  0  0  0  0  0  0  0
    7.9519   -1.4559    0.0000 H   0  0  0  0  0  0  0  0  0  0  0  0
    6.8445    2.7572    0.0000 H   0  0  0  0  0  0  0  0  0  0  0  0
    6.1542    3.1557    0.0000 H   0  0  0  0  0  0  0  0  0  0  0  0
    6.4519   -0.5899    0.0000 H   0  0  0  0  0  0  0  0  0  0  0  0
    8.8819    0.8130    0.0000 H   0  0  0  0  0  0  0  0  0  0  0  0
    5.6419    0.8130    0.0000 H   0  0  0  0  0  0  0  0  0  0  0  0
    8.0719    2.2160    0.0000 H   0  0  0  0  0  0  0  0  0  0  0  0
    2.8660    4.1651    0.0000 H   0  0  0  0  0  0  0  0  0  0  0  0
    2.8660    0.9251    0.0000 H   0  0  0  0  0  0  0  0  0  0  0  0
    1.4631    3.3551    0.0000 H   0  0  0  0  0  0  0  0  0  0  0  0
    1.4631    1.7351    0.0000 H   0  0  0  0  0  0  0  0  0  0  0  0
  1 23  1  0  0  0  0
  1 24  1  0  0  0  0
  2 10  2  0  0  0  0
  3 13  2  0  0  0  0
  4 15  2  0  0  0  0
  5 10  1  0  0  0  0
  5 13  1  0  0  0  0
  5 14  1  0  0  0  0
  6  9  1  0  0  0  0
  6 13  1  0  0  0  0
  6 30  1  0  0  0  0
  7 15  1  0  0  0  0
  7 16  1  0  0  0  0
  7 39  1  0  0  0  0
  8 23  2  0  0  0  0
  8 25  1  0  0  0  0
  9 10  1  0  0  0  0
  9 11  1  0  0  0  0
  9 12  1  0  0  0  0
 11 31  1  0  0  0  0
 11 35  1  0  0  0  0
 11 36  1  0  0  0  0
 12 32  1  0  0  0  0
 12 33  1  0  0  0  0
 12 34  1  0  0  0  0
 14 15  1  0  0  0  0
 14 37  1  0  0  0  0
 14 38  1  0  0  0  0
 16 19  2  0  0  0  0
 16 20  1  0  0  0  0
 17 18  1  0  0  0  0
 17 21  2  0  0  0  0
 17 22  1  0  0  0  0
 18 23  1  0  0  0  0
 18 40  1  0  0  0  0
 18 41  1  0  0  0  0
 19 21  1  0  0  0  0
 19 42  1  0  0  0  0
 20 22  2  0  0  0  0
 20 43  1  0  0  0  0
 21 44  1  0  0  0  0
 22 45  1  0  0  0  0
 24 25  1  0  0  0  0
 24 26  2  0  0  0  0
 25 27  2  0  0  0  0
 26 28  1  0  0  0  0
 26 46  1  0  0  0  0
 27 29  1  0  0  0  0
 27 47  1  0  0  0  0
 28 29  2  0  0  0  0
 28 48  1  0  0  0  0
 29 49  1  0  0  0  0
M  END
> <PUBCHEM_COMPOUND_CID>
17395547

> <PUBCHEM_COMPOUND_CANONICALIZED>
1

> <PUBCHEM_CACTVS_COMPLEXITY>
662

> <PUBCHEM_CACTVS_HBOND_ACCEPTOR>
5

> <PUBCHEM_CACTVS_HBOND_DONOR>
2

> <PUBCHEM_CACTVS_ROTATABLE_BOND>
5

> <PUBCHEM_CACTVS_SUBSKEYS>
AAADceB7sABAAAAAAAAAAAAAAAAAAWLAAAAwYAAAAAAAAFgB9AAAHgQQAAAADIjB3gQzwbPIEAisAyVyVACD8KBhCjhImD24ZJiIYKLgkbGUIAholyLoyAcQgIAOCAAAAAAAAQAQAAAAAAACAAAAAAAAAA==

> <PUBCHEM_IUPAC_OPENEYE_NAME>
N-[4-(1,3-benzothiazol-2-ylmethyl)phenyl]-2-(4,4-dimethyl-2,5-dioxo-imidazolidin-1-yl)acetamide

> <PUBCHEM_IUPAC_CAS_NAME>
N-[4-(1,3-benzothiazol-2-ylmethyl)phenyl]-2-(4,4-dimethyl-2,5-dioxo-1-imidazolidinyl)acetamide

> <PUBCHEM_IUPAC_NAME>
N-[4-(1,3-benzothiazol-2-ylmethyl)phenyl]-2-(4,4-dimethyl-2,5-dioxoimidazolidin-1-yl)acetamide

> <PUBCHEM_IUPAC_SYSTEMATIC_NAME>
N-[4-(1,3-benzothiazol-2-ylmethyl)phenyl]-2-[4,4-dimethyl-2,5-bis(oxidanylidene)imidazolidin-1-yl]ethanamide

> <PUBCHEM_IUPAC_TRADITIONAL_NAME>
N-[4-(1,3-benzothiazol-2-ylmethyl)phenyl]-2-(2,5-diketo-4,4-dimethyl-imidazolidin-1-yl)acetamide

> <PUBCHEM_IUPAC_INCHI>
InChI=1S/C21H20N4O3S/c1-21(2)19(27)25(20(28)24-21)12-17(26)22-14-9-7-13(8-10-14)11-18-23-15-5-3-4-6-16(15)29-18/h3-10H,11-12H2,1-2H3,(H,22,26)(H,24,28)

> <PUBCHEM_IUPAC_INCHIKEY>
TXOMRNBAMPPVQO-UHFFFAOYSA-N

> <PUBCHEM_XLOGP3_AA>
3

> <PUBCHEM_EXACT_MASS>
408.125612

> <PUBCHEM_MOLECULAR_FORMULA>
C21H20N4O3S

> <PUBCHEM_MOLECULAR_WEIGHT>
408.4735

> <PUBCHEM_OPENEYE_CAN_SMILES>
CC1(C(=O)N(C(=O)N1)CC(=O)NC2=CC=C(C=C2)CC3=NC4=CC=CC=C4S3)C

> <PUBCHEM_OPENEYE_ISO_SMILES>
CC1(C(=O)N(C(=O)N1)CC(=O)NC2=CC=C(C=C2)CC3=NC4=CC=CC=C4S3)C

> <PUBCHEM_CACTVS_TPSA>
120

> <PUBCHEM_MONOISOTOPIC_WEIGHT>
408.125612

> <PUBCHEM_TOTAL_CHARGE>
0

> <PUBCHEM_HEAVY_ATOM_COUNT>
29

> <PUBCHEM_ATOM_DEF_STEREO_COUNT>
0

> <PUBCHEM_ATOM_UDEF_STEREO_COUNT>
0

> <PUBCHEM_BOND_DEF_STEREO_COUNT>
0

> <PUBCHEM_BOND_UDEF_STEREO_COUNT>
0

> <PUBCHEM_ISOTOPIC_ATOM_COUNT>
0

> <PUBCHEM_COMPONENT_COUNT>
1

> <PUBCHEM_CACTVS_TAUTO_COUNT>
6

> <PUBCHEM_COORDINATE_TYPE>
1
5
255

> <PUBCHEM_BONDANNOTATIONS>
1  23  8
1  24  8
16  19  8
16  20  8
17  21  8
17  22  8
19  21  8
20  22  8
24  25  8
24  26  8
25  27  8
26  28  8
27  29  8
28  29  8
8  23  8
8  25  8

$$$$

