17395868
  -OEChem-06241222523D

 48 51  0     0  0  0  0  0  0999 V2000
   -4.3009   -1.5077    1.1779 O   0  0  0  0  0  0  0  0  0  0  0  0
   -2.5576   -2.8609    0.5049 O   0  0  0  0  0  0  0  0  0  0  0  0
   -0.6567   -0.0813   -0.8128 N   0  0  0  0  0  0  0  0  0  0  0  0
    2.1237    0.2417   -0.2435 N   0  0  0  0  0  0  0  0  0  0  0  0
   -2.8894   -0.7657   -0.4852 N   0  0  0  0  0  0  0  0  0  0  0  0
    0.2517    0.4632   -1.8292 C   0  0  0  0  0  0  0  0  0  0  0  0
    0.0513   -1.0674    0.0129 C   0  0  0  0  0  0  0  0  0  0  0  0
    1.4555    1.1505   -1.1800 C   0  0  0  0  0  0  0  0  0  0  0  0
    1.2474   -0.4304    0.7241 C   0  0  0  0  0  0  0  0  0  0  0  0
   -1.8285   -0.6876   -1.4437 C   0  0  0  0  0  0  0  0  0  0  0  0
    3.4517    0.4807    0.1273 C   0  0  0  0  0  0  0  0  0  0  0  0
    4.4468   -0.4629   -0.1280 C   0  0  0  0  0  0  0  0  0  0  0  0
   -3.8365    0.2197   -0.2726 C   0  0  0  0  0  0  0  0  0  0  0  0
    3.7747    1.6807    0.7609 C   0  0  0  0  0  0  0  0  0  0  0  0
    5.7647   -0.2064    0.2502 C   0  0  0  0  0  0  0  0  0  0  0  0
   -3.1726   -1.8074    0.3921 C   0  0  0  0  0  0  0  0  0  0  0  0
   -4.6668   -0.2489    0.7251 C   0  0  0  0  0  0  0  0  0  0  0  0
    4.1036   -1.7516   -0.8073 C   0  0  0  0  0  0  0  0  0  0  0  0
    5.0926    1.9371    1.1391 C   0  0  0  0  0  0  0  0  0  0  0  0
    6.0876    0.9936    0.8838 C   0  0  0  0  0  0  0  0  0  0  0  0
   -4.0196    1.4513   -0.8658 C   0  0  0  0  0  0  0  0  0  0  0  0
    6.8488   -1.2001   -0.0106 C   0  0  0  0  0  0  0  0  0  0  0  0
   -5.7332    0.4928    1.1879 C   0  0  0  0  0  0  0  0  0  0  0  0
   -5.0943    2.2210   -0.4128 C   0  0  0  0  0  0  0  0  0  0  0  0
   -5.9442    1.7460    0.6055 C   0  0  0  0  0  0  0  0  0  0  0  0
   -0.2712    1.2059   -2.4441 H   0  0  0  0  0  0  0  0  0  0  0  0
    0.6000   -0.3325   -2.5017 H   0  0  0  0  0  0  0  0  0  0  0  0
    0.3941   -1.9165   -0.5934 H   0  0  0  0  0  0  0  0  0  0  0  0
   -0.5909   -1.4594    0.8041 H   0  0  0  0  0  0  0  0  0  0  0  0
    2.1507    1.4605   -1.9699 H   0  0  0  0  0  0  0  0  0  0  0  0
    1.1290    2.0548   -0.6509 H   0  0  0  0  0  0  0  0  0  0  0  0
    0.9023    0.2975    1.4696 H   0  0  0  0  0  0  0  0  0  0  0  0
    1.7948   -1.2151    1.2610 H   0  0  0  0  0  0  0  0  0  0  0  0
   -2.1807   -0.1013   -2.3007 H   0  0  0  0  0  0  0  0  0  0  0  0
   -1.6067   -1.6950   -1.8186 H   0  0  0  0  0  0  0  0  0  0  0  0
    3.0118    2.4252    0.9740 H   0  0  0  0  0  0  0  0  0  0  0  0
    4.0141   -2.5530   -0.0667 H   0  0  0  0  0  0  0  0  0  0  0  0
    3.1651   -1.7013   -1.3682 H   0  0  0  0  0  0  0  0  0  0  0  0
    4.8631   -2.0310   -1.5449 H   0  0  0  0  0  0  0  0  0  0  0  0
    5.3437    2.8709    1.6336 H   0  0  0  0  0  0  0  0  0  0  0  0
    7.1093    1.2099    1.1843 H   0  0  0  0  0  0  0  0  0  0  0  0
   -3.3679    1.8243   -1.6467 H   0  0  0  0  0  0  0  0  0  0  0  0
    6.5758   -2.1885    0.3734 H   0  0  0  0  0  0  0  0  0  0  0  0
    7.0567   -1.2680   -1.0833 H   0  0  0  0  0  0  0  0  0  0  0  0
    7.7833   -0.9168    0.4867 H   0  0  0  0  0  0  0  0  0  0  0  0
   -6.3852    0.1249    1.9714 H   0  0  0  0  0  0  0  0  0  0  0  0
   -5.2783    3.1992   -0.8494 H   0  0  0  0  0  0  0  0  0  0  0  0
   -6.7733    2.3632    0.9411 H   0  0  0  0  0  0  0  0  0  0  0  0
  1 16  1  0  0  0  0
  1 17  1  0  0  0  0
  2 16  2  0  0  0  0
  3  6  1  0  0  0  0
  3  7  1  0  0  0  0
  3 10  1  0  0  0  0
  4  8  1  0  0  0  0
  4  9  1  0  0  0  0
  4 11  1  0  0  0  0
  5 10  1  0  0  0  0
  5 13  1  0  0  0  0
  5 16  1  0  0  0  0
  6  8  1  0  0  0  0
  6 26  1  0  0  0  0
  6 27  1  0  0  0  0
  7  9  1  0  0  0  0
  7 28  1  0  0  0  0
  7 29  1  0  0  0  0
  8 30  1  0  0  0  0
  8 31  1  0  0  0  0
  9 32  1  0  0  0  0
  9 33  1  0  0  0  0
 10 34  1  0  0  0  0
 10 35  1  0  0  0  0
 11 12  1  0  0  0  0
 11 14  2  0  0  0  0
 12 15  2  0  0  0  0
 12 18  1  0  0  0  0
 13 17  1  0  0  0  0
 13 21  2  0  0  0  0
 14 19  1  0  0  0  0
 14 36  1  0  0  0  0
 15 20  1  0  0  0  0
 15 22  1  0  0  0  0
 17 23  2  0  0  0  0
 18 37  1  0  0  0  0
 18 38  1  0  0  0  0
 18 39  1  0  0  0  0
 19 20  2  0  0  0  0
 19 40  1  0  0  0  0
 20 41  1  0  0  0  0
 21 24  1  0  0  0  0
 21 42  1  0  0  0  0
 22 43  1  0  0  0  0
 22 44  1  0  0  0  0
 22 45  1  0  0  0  0
 23 25  1  0  0  0  0
 23 46  1  0  0  0  0
 24 25  2  0  0  0  0
 24 47  1  0  0  0  0
 25 48  1  0  0  0  0
M  END
> <PUBCHEM_COMPOUND_CID>
17395868

> <PUBCHEM_CONFORMER_RMSD>
0.8

> <PUBCHEM_CONFORMER_DIVERSEORDER>
1
43
21
36
38
12
42
5
17
39
46
13
44
2
18
31
6
41
25
8
29
40
9
20
32
22
4
45
27
35
47
3
37
26
15
34
33
23
28
19
30
10
11
7
14
24
16

> <PUBCHEM_MMFF94_PARTIAL_CHARGES>
32
1 -0.23
10 0.57
11 0.1
12 -0.14
13 0.12
14 -0.15
15 -0.14
16 0.78
17 0.08
18 0.14
19 -0.15
2 -0.57
20 -0.15
21 -0.15
22 0.14
23 -0.15
24 -0.15
25 -0.15
3 -0.81
36 0.15
4 -0.84
40 0.15
41 0.15
42 0.15
46 0.15
47 0.15
48 0.15
5 -0.48
6 0.27
7 0.27
8 0.37
9 0.37

> <PUBCHEM_EFFECTIVE_ROTOR_COUNT>
4.2

> <PUBCHEM_PHARMACOPHORE_FEATURES>
7
1 2 acceptor
1 3 cation
1 4 cation
5 1 5 13 16 17 rings
6 11 12 14 15 19 20 rings
6 13 17 21 23 24 25 rings
6 3 4 6 7 8 9 rings

> <PUBCHEM_HEAVY_ATOM_COUNT>
25

> <PUBCHEM_ATOM_DEF_STEREO_COUNT>
0

> <PUBCHEM_ATOM_UDEF_STEREO_COUNT>
0

> <PUBCHEM_BOND_DEF_STEREO_COUNT>
0

> <PUBCHEM_BOND_UDEF_STEREO_COUNT>
0

> <PUBCHEM_ISOTOPIC_ATOM_COUNT>
0

> <PUBCHEM_COMPONENT_COUNT>
1

> <PUBCHEM_CACTVS_TAUTO_COUNT>
1

> <PUBCHEM_CONFORMER_ID>
0109709C00000001

> <PUBCHEM_MMFF94_ENERGY>
89.7674

> <PUBCHEM_FEATURE_SELFOVERLAP>
35.636

> <PUBCHEM_SHAPE_FINGERPRINT>
10 15 18201998807116946265
10319926 262 18342728603322743759
10554248 39 16081084879673290292
10928967 22 15913059672377691352
11045977 3 18408325475462452616
11089746 13 14923951145814178834
11370993 144 18408605872264897263
11405975 8 18410858733236230234
12236239 1 16877948213810259310
12596602 18 18335701607113396434
12616971 3 16773793675801570670
12633257 1 16487251045840482745
13103583 49 16056589976767075089
13583140 156 17823138925692429339
13675066 3 18410573963713564268
14251758 9 18341895203415379356
14341114 176 18411417315266290976
14420673 8 18130503132140256666
14528608 73 7060381422771182948
14849402 71 17630878314450515124
14856354 85 15913315901905985411
14933364 13 18411135836062970584
14951699 99 18336824174405990580
15142383 8 18186805807680036928
15183329 4 16805321093891858776
15238133 3 18342163493064498685
15348495 7 18338237068295366280
15461852 350 18187649081416308013
15537594 2 16773804705240559634
15788980 27 17967816020313412742
15799311 1 15769766992193106658
16110190 28 18201716228201863005
17349148 13 15123514722411018670
17780758 139 17846780681138112097
17844677 252 18411415068882129800
1813 80 16128651968107677422
19377110 9 15410896275486081748
20281389 69 18113902641064360472
20511986 3 16733279988496987862
21033648 29 18187658959366510368
21054139 6 6483346712218214332
21315759 148 18271803467596274402
21403212 168 18059858411424248279
22122407 14 17240479182697822544
23522609 53 16987694922969817204
23559900 14 18334860515542037944
23569914 2 17466843359549559336
23622692 88 17775283872553398109
2767999 5 15430036565043348776
2838139 119 17095245843258287705
312425 54 18271812302496885610
314194 84 13830137178413430472
3383291 50 17917704648971770779
3737641 26 16988012720363370458
4073 2 18271524204955177298
465052 167 14333127485986104208
4938544 92 15913055373833086861
5104073 3 18341061718209880338
5364581 5 18197220234988259176
5385378 56 18268138950318551947
5924683 9 18263647256272213999
7226269 152 18259984903019367769
9995097 60 18407759248564840590

> <PUBCHEM_SHAPE_MULTIPOLES>
487.81
17.38
2.18
1.28
5.9
0.23
0.26
-4.28
-5.12
-0.94
-0.34
-0.47
-0.13
1.49

> <PUBCHEM_SHAPE_SELFOVERLAP>
1061.477

> <PUBCHEM_SHAPE_VOLUME>
267.5

> <PUBCHEM_COORDINATE_TYPE>
2
5
10

$$$$

