585943
  -OEChem-06241222453D

 30 30  0     0  0  0  0  0  0999 V2000
    0.9754   -0.7581   -1.1947 S   0  0  0  0  0  0  0  0  0  0  0  0
   -3.7683    0.2797   -0.4215 O   0  0  0  0  0  0  0  0  0  0  0  0
   -2.9474   -0.4039    1.6116 O   0  0  0  0  0  0  0  0  0  0  0  0
   -2.0778   -1.1967   -0.3879 N   0  0  0  0  0  0  0  0  0  0  0  0
   -1.0658   -2.0719    0.1573 C   0  0  0  0  0  0  0  0  0  0  0  0
    0.2733   -1.3773    0.3645 C   0  0  0  0  0  0  0  0  0  0  0  0
    2.4715   -0.0497   -0.5208 C   0  0  0  0  0  0  0  0  0  0  0  0
    3.6222   -0.8273   -0.4206 C   0  0  0  0  0  0  0  0  0  0  0  0
    2.4803    1.2772   -0.0992 C   0  0  0  0  0  0  0  0  0  0  0  0
   -2.9313   -0.4383    0.3855 C   0  0  0  0  0  0  0  0  0  0  0  0
   -4.7154    1.1184    0.2495 C   0  0  0  0  0  0  0  0  0  0  0  0
    4.7898   -0.2741    0.1051 C   0  0  0  0  0  0  0  0  0  0  0  0
    3.6479    1.8306    0.4264 C   0  0  0  0  0  0  0  0  0  0  0  0
    4.8027    1.0548    0.5285 C   0  0  0  0  0  0  0  0  0  0  0  0
   -5.5570    1.8366   -0.7837 C   0  0  0  0  0  0  0  0  0  0  0  0
   -1.4227   -2.4623    1.1170 H   0  0  0  0  0  0  0  0  0  0  0  0
   -0.9646   -2.9219   -0.5268 H   0  0  0  0  0  0  0  0  0  0  0  0
    0.1510   -0.5351    1.0547 H   0  0  0  0  0  0  0  0  0  0  0  0
    0.9779   -2.0842    0.8156 H   0  0  0  0  0  0  0  0  0  0  0  0
   -2.1607   -1.1299   -1.3977 H   0  0  0  0  0  0  0  0  0  0  0  0
    3.6304   -1.8647   -0.7453 H   0  0  0  0  0  0  0  0  0  0  0  0
    1.5896    1.8965   -0.1709 H   0  0  0  0  0  0  0  0  0  0  0  0
   -5.3588    0.5034    0.8886 H   0  0  0  0  0  0  0  0  0  0  0  0
   -4.1819    1.8503    0.8661 H   0  0  0  0  0  0  0  0  0  0  0  0
    5.6890   -0.8780    0.1849 H   0  0  0  0  0  0  0  0  0  0  0  0
    3.6581    2.8653    0.7563 H   0  0  0  0  0  0  0  0  0  0  0  0
    5.7118    1.4855    0.9378 H   0  0  0  0  0  0  0  0  0  0  0  0
   -6.2931    2.4880   -0.3045 H   0  0  0  0  0  0  0  0  0  0  0  0
   -4.9252    2.4415   -1.4425 H   0  0  0  0  0  0  0  0  0  0  0  0
   -6.0826    1.1171   -1.4202 H   0  0  0  0  0  0  0  0  0  0  0  0
  1  6  1  0  0  0  0
  1  7  1  0  0  0  0
  2 10  1  0  0  0  0
  2 11  1  0  0  0  0
  3 10  2  0  0  0  0
  4  5  1  0  0  0  0
  4 10  1  0  0  0  0
  4 20  1  0  0  0  0
  5  6  1  0  0  0  0
  5 16  1  0  0  0  0
  5 17  1  0  0  0  0
  6 18  1  0  0  0  0
  6 19  1  0  0  0  0
  7  8  2  0  0  0  0
  7  9  1  0  0  0  0
  8 12  1  0  0  0  0
  8 21  1  0  0  0  0
  9 13  2  0  0  0  0
  9 22  1  0  0  0  0
 11 15  1  0  0  0  0
 11 23  1  0  0  0  0
 11 24  1  0  0  0  0
 12 14  2  0  0  0  0
 12 25  1  0  0  0  0
 13 14  1  0  0  0  0
 13 26  1  0  0  0  0
 14 27  1  0  0  0  0
 15 28  1  0  0  0  0
 15 29  1  0  0  0  0
 15 30  1  0  0  0  0
M  END
> <PUBCHEM_COMPOUND_CID>
585943

> <PUBCHEM_CONFORMER_RMSD>
0.8

> <PUBCHEM_CONFORMER_DIVERSEORDER>
1
120
6
9
142
10
127
152
26
100
72
13
19
133
41
30
131
52
31
135
129
123
8
43
45
61
154
66
49
11
140
21
81
39
2
95
124
37
126
104
42
51
94
44
149
157
151
87
150
99
56
34
4
107
35
103
134
110
32
132
53
23
93
153
76
98
143
74
147
112
92
3
86
79
97
88
102
115
46
158
119
7
159
80
55
47
71
50
24
5
38
96
62
139
22
109
14
114
125
17
60
90
106
148
20
29
16
15
160
63
40
116
111
64
108
59
18
85
84
54
118
82
28
130
70
83
145
117
161
48
105
69
75
121
77
67
155
78
73
91
27
162
65
12
122
58
101
113
144
164
141
33
128
156
138
68
89
25
36
163
136
146
57
137

> <PUBCHEM_MMFF94_PARTIAL_CHARGES>
20
1 -0.33
10 0.78
11 0.28
12 -0.15
13 -0.15
14 -0.15
2 -0.43
20 0.37
21 0.15
22 0.15
25 0.15
26 0.15
27 0.15
3 -0.57
4 -0.73
5 0.3
6 0.23
7 0.1
8 -0.15
9 -0.15

> <PUBCHEM_EFFECTIVE_ROTOR_COUNT>
7

> <PUBCHEM_PHARMACOPHORE_FEATURES>
3
1 3 acceptor
1 4 donor
6 7 8 9 12 13 14 rings

> <PUBCHEM_HEAVY_ATOM_COUNT>
15

> <PUBCHEM_ATOM_DEF_STEREO_COUNT>
0

> <PUBCHEM_ATOM_UDEF_STEREO_COUNT>
0

> <PUBCHEM_BOND_DEF_STEREO_COUNT>
0

> <PUBCHEM_BOND_UDEF_STEREO_COUNT>
0

> <PUBCHEM_ISOTOPIC_ATOM_COUNT>
0

> <PUBCHEM_COMPONENT_COUNT>
1

> <PUBCHEM_CACTVS_TAUTO_COUNT>
2

> <PUBCHEM_CONFORMER_ID>
0008F0D700000001

> <PUBCHEM_MMFF94_ENERGY>
22.4492

> <PUBCHEM_FEATURE_SELFOVERLAP>
15.223

> <PUBCHEM_SHAPE_FINGERPRINT>
10014705 185 18334295340447514407
11089746 13 18410864273527809862
122479 349 18411134693163930382
12596602 18 15195271032909546029
12670546 177 5400793990427451498
13103583 49 13614230538680947741
13402501 40 18340492252633659581
13675066 3 18202275884047048258
14123255 352 18408322172521630701
14123255 52 18411419527205928051
1420 369 9655573024236246769
14251710 61 9799695900150432257
14251732 14 9006776566030520056
14251732 17 18342176704098544517
14251764 30 12751243652927183720
14576447 43 8142093065616688892
14790565 3 17620471308345529516
15239191 94 12535355549724631202
15375462 189 12823296771450660158
15531645 54 18411135874854865294
17834072 32 18408603669247361009
17834072 8 18261386771949662486
18186145 218 18115289125480193350
193927 3 7420936604583219549
19782 4 18411981373394692591
20112054 13 18272932717429823391
20388580 30 7492994189504160027
20621476 13 17970074348530922032
20621476 21 12607133971152531712
20645477 56 18409157793090845103
212847 35 18343861130543316412
212916 134 17489587879119629699
21713013 43 6988327109887815835
22950370 63 10159698018865741279
231179 274 18410290332695107583
23402539 116 18261399939797113655
23402655 69 17894911832202258532
235170 7 5472868021226438104
23559900 14 18113330934411302118
2838139 119 18337963393275028117
2916195 48 18409732850609405633
351380 180 18335422378304445149
351380 3 12823293494174413561
4028521 119 18260265248398190497
5352402 22 12823020858208743208
6328613 192 18341321216145470436
6430166 295 18413671305233384590

> <PUBCHEM_SHAPE_MULTIPOLES>
295.82
12.29
1.98
1
7.54
0.15
-0.04
7.51
-0.14
0.55
-0.01
0.42
-0.06
1.07

> <PUBCHEM_SHAPE_SELFOVERLAP>
575.545

> <PUBCHEM_SHAPE_VOLUME>
178.9

> <PUBCHEM_COORDINATE_TYPE>
2
5
10

$$$$

