11943
  -OEChem-06261206193D

 26 27  0     0  0  0  0  0  0999 V2000
    4.1191    0.3292    0.0007 O   0  0  0  0  0  0  0  0  0  0  0  0
   -0.0244    0.0892   -0.0012 C   0  0  0  0  0  0  0  0  0  0  0  0
   -1.4689    0.0060   -0.0004 C   0  0  0  0  0  0  0  0  0  0  0  0
    0.7415   -1.0765   -0.0009 C   0  0  0  0  0  0  0  0  0  0  0  0
    0.6020    1.3355   -0.0011 C   0  0  0  0  0  0  0  0  0  0  0  0
   -2.1659   -0.0350   -1.2079 C   0  0  0  0  0  0  0  0  0  0  0  0
   -2.1644   -0.0335    1.2079 C   0  0  0  0  0  0  0  0  0  0  0  0
    2.7606    0.2504   -0.0006 C   0  0  0  0  0  0  0  0  0  0  0  0
    2.1340   -0.9958   -0.0006 C   0  0  0  0  0  0  0  0  0  0  0  0
    1.9946    1.4161   -0.0009 C   0  0  0  0  0  0  0  0  0  0  0  0
   -3.5585   -0.1154   -1.2072 C   0  0  0  0  0  0  0  0  0  0  0  0
   -3.5570   -0.1140    1.2088 C   0  0  0  0  0  0  0  0  0  0  0  0
   -4.2540   -0.1548    0.0012 C   0  0  0  0  0  0  0  0  0  0  0  0
    4.8411   -0.9015    0.0022 C   0  0  0  0  0  0  0  0  0  0  0  0
    0.2680   -2.0556   -0.0007 H   0  0  0  0  0  0  0  0  0  0  0  0
    0.0199    2.2541   -0.0010 H   0  0  0  0  0  0  0  0  0  0  0  0
   -1.6392   -0.0052   -2.1589 H   0  0  0  0  0  0  0  0  0  0  0  0
   -1.6367   -0.0025    2.1583 H   0  0  0  0  0  0  0  0  0  0  0  0
    2.6678   -1.9400   -0.0003 H   0  0  0  0  0  0  0  0  0  0  0  0
    2.4770    2.3897   -0.0007 H   0  0  0  0  0  0  0  0  0  0  0  0
   -4.1013   -0.1472   -2.1474 H   0  0  0  0  0  0  0  0  0  0  0  0
   -4.0987   -0.1447    2.1497 H   0  0  0  0  0  0  0  0  0  0  0  0
   -5.3382   -0.2174    0.0019 H   0  0  0  0  0  0  0  0  0  0  0  0
    4.6500   -1.4812   -0.9073 H   0  0  0  0  0  0  0  0  0  0  0  0
    4.6479   -1.4803    0.9117 H   0  0  0  0  0  0  0  0  0  0  0  0
    5.9070   -0.6510    0.0033 H   0  0  0  0  0  0  0  0  0  0  0  0
  1  8  1  0  0  0  0
  1 14  1  0  0  0  0
  2  3  1  0  0  0  0
  2  4  2  0  0  0  0
  2  5  1  0  0  0  0
  3  6  2  0  0  0  0
  3  7  1  0  0  0  0
  4  9  1  0  0  0  0
  4 15  1  0  0  0  0
  5 10  2  0  0  0  0
  5 16  1  0  0  0  0
  6 11  1  0  0  0  0
  6 17  1  0  0  0  0
  7 12  2  0  0  0  0
  7 18  1  0  0  0  0
  8  9  2  0  0  0  0
  8 10  1  0  0  0  0
  9 19  1  0  0  0  0
 10 20  1  0  0  0  0
 11 13  2  0  0  0  0
 11 21  1  0  0  0  0
 12 13  1  0  0  0  0
 12 22  1  0  0  0  0
 13 23  1  0  0  0  0
 14 24  1  0  0  0  0
 14 25  1  0  0  0  0
 14 26  1  0  0  0  0
M  END
> <PUBCHEM_COMPOUND_CID>
11943

> <PUBCHEM_CONFORMER_RMSD>
0.6

> <PUBCHEM_CONFORMER_DIVERSEORDER>
1
2

> <PUBCHEM_MMFF94_PARTIAL_CHARGES>
21
1 -0.36
10 -0.15
11 -0.15
12 -0.15
13 -0.15
14 0.28
15 0.15
16 0.15
17 0.15
18 0.15
19 0.15
20 0.15
21 0.15
22 0.15
23 0.15
4 -0.15
5 -0.15
6 -0.15
7 -0.15
8 0.08
9 -0.15

> <PUBCHEM_EFFECTIVE_ROTOR_COUNT>
2

> <PUBCHEM_PHARMACOPHORE_FEATURES>
3
1 1 acceptor
6 2 4 5 8 9 10 rings
6 3 6 7 11 12 13 rings

> <PUBCHEM_HEAVY_ATOM_COUNT>
14

> <PUBCHEM_ATOM_DEF_STEREO_COUNT>
0

> <PUBCHEM_ATOM_UDEF_STEREO_COUNT>
0

> <PUBCHEM_BOND_DEF_STEREO_COUNT>
0

> <PUBCHEM_BOND_UDEF_STEREO_COUNT>
0

> <PUBCHEM_ISOTOPIC_ATOM_COUNT>
0

> <PUBCHEM_COMPONENT_COUNT>
1

> <PUBCHEM_CACTVS_TAUTO_COUNT>
1

> <PUBCHEM_CONFORMER_ID>
00002EA700000001

> <PUBCHEM_MMFF94_ENERGY>
52.6485

> <PUBCHEM_FEATURE_SELFOVERLAP>
15.223

> <PUBCHEM_SHAPE_FINGERPRINT>
10219947 1 18410009931697415884
10465860 250 17346325898902678296
11401426 45 18334021587890456736
11471102 20 18412545397026738252
11615757 297 18408604742862506577
12032990 46 18272085020019259962
12186901 62 16128380389046631591
12236239 1 17748827410585563535
124424 183 17846782909730078288
12500047 106 16558756706379109571
13581323 91 15339124528543127569
13690532 89 18408605872660607358
13760787 5 18410570682880867356
13862211 1 18410579522119195850
14144814 61 17894910728638217451
14993402 34 18113903753497514534
15219456 202 17774721965686497493
15309172 13 18408882932237072295
15653759 3 17132116818548804881
16945 1 18410575076278957092
17862501 102 17458348545866027866
1813 80 18188756358271309828
18175812 5 17704070655594378151
18186145 218 18410295782939833036
19026448 4 16917348117468944508
19026448 5 16877663444287625336
19422 9 17676488306926337279
200 152 18261117365804543181
20201158 50 18131632296263916131
20279233 1 17775001297669667339
20325693 3 15913325814664052419
20645477 70 18271815673709050442
22094290 60 16343984719058384917
23175994 123 18202559592248510461
23402539 116 15068627110474089513
23402655 69 18409737291626929325
23557571 272 16773798138135369839
23559900 14 16845300483597456266
26918003 58 18411414004020209291
42 15 16443060621221600662
474 4 17679598735307045984
573450 72 16660365917165042543
77492 1 17676486133868109477

> <PUBCHEM_SHAPE_MULTIPOLES>
282.24
8.45
1.12
1.04
2.84
0.18
0
-1.43
0
0.9
0
-1.21
-0.04
0

> <PUBCHEM_SHAPE_SELFOVERLAP>
609.18

> <PUBCHEM_SHAPE_VOLUME>
156.7

> <PUBCHEM_COORDINATE_TYPE>
2
5
10

$$$$

