13426
  -OEChem-06261214063D

 33 33  0     0  0  0  0  0  0999 V2000
   -2.2019    1.1619   -0.9489 O   0  0  0  0  0  0  0  0  0  0  0  0
   -2.0046    0.2128    1.2660 O   0  0  0  0  0  0  0  0  0  0  0  0
   -1.1035   -2.3797    0.2307 O   0  0  0  0  0  0  0  0  0  0  0  0
    2.0586    0.3248   -0.0047 N   0  3  0  0  0  0  0  0  0  0  0  0
   -0.2865   -0.2192   -0.3916 C   0  0  0  0  0  0  0  0  0  0  0  0
    0.9454    0.5104   -0.9508 C   0  0  0  0  0  0  0  0  0  0  0  0
   -1.5003   -0.0212   -1.3259 C   0  0  0  0  0  0  0  0  0  0  0  0
   -0.6086    0.3494    1.0079 C   0  0  0  0  0  0  0  0  0  0  0  0
    0.0285   -1.7210   -0.3007 C   0  0  0  0  0  0  0  0  0  0  0  0
    3.3334    1.0309   -0.4996 C   0  0  0  0  0  0  0  0  0  0  0  0
    1.7132    0.9000    1.3805 C   0  0  0  0  0  0  0  0  0  0  0  0
    2.3913   -1.1667    0.1780 C   0  0  0  0  0  0  0  0  0  0  0  0
   -2.7650    1.0176    0.3591 C   0  0  0  0  0  0  0  0  0  0  0  0
    0.7607    1.5862   -1.0629 H   0  0  0  0  0  0  0  0  0  0  0  0
    1.2475    0.1099   -1.9268 H   0  0  0  0  0  0  0  0  0  0  0  0
   -1.1804    0.0924   -2.3676 H   0  0  0  0  0  0  0  0  0  0  0  0
   -2.2087   -0.8576   -1.3065 H   0  0  0  0  0  0  0  0  0  0  0  0
   -0.2374   -0.2719    1.8170 H   0  0  0  0  0  0  0  0  0  0  0  0
   -0.4740    1.4241    1.1143 H   0  0  0  0  0  0  0  0  0  0  0  0
    0.6621   -2.1076    0.4637 H   0  0  0  0  0  0  0  0  0  0  0  0
    0.2386   -2.1597   -1.2823 H   0  0  0  0  0  0  0  0  0  0  0  0
    3.5981    0.6042   -1.4718 H   0  0  0  0  0  0  0  0  0  0  0  0
    3.1093    2.0972   -0.5994 H   0  0  0  0  0  0  0  0  0  0  0  0
    4.1421    0.8755    0.2211 H   0  0  0  0  0  0  0  0  0  0  0  0
    2.6949    1.1567    1.8126 H   0  0  0  0  0  0  0  0  0  0  0  0
    1.2706    1.8952    1.3024 H   0  0  0  0  0  0  0  0  0  0  0  0
    1.4148    0.1675    2.1265 H   0  0  0  0  0  0  0  0  0  0  0  0
    2.2609   -1.7347   -0.7468 H   0  0  0  0  0  0  0  0  0  0  0  0
    3.4871   -1.2012    0.2874 H   0  0  0  0  0  0  0  0  0  0  0  0
    2.1129   -1.5384    1.1690 H   0  0  0  0  0  0  0  0  0  0  0  0
   -2.8860    2.0173    0.7887 H   0  0  0  0  0  0  0  0  0  0  0  0
   -3.7607    0.5721    0.2662 H   0  0  0  0  0  0  0  0  0  0  0  0
   -0.9586   -3.3382    0.1479 H   0  0  0  0  0  0  0  0  0  0  0  0
  1  7  1  0  0  0  0
  1 13  1  0  0  0  0
  2  8  1  0  0  0  0
  2 13  1  0  0  0  0
  3  9  1  0  0  0  0
  3 33  1  0  0  0  0
  4  6  1  0  0  0  0
  4 10  1  0  0  0  0
  4 11  1  0  0  0  0
  4 12  1  0  0  0  0
  5  6  1  0  0  0  0
  5  7  1  0  0  0  0
  5  8  1  0  0  0  0
  5  9  1  0  0  0  0
  6 14  1  0  0  0  0
  6 15  1  0  0  0  0
  7 16  1  0  0  0  0
  7 17  1  0  0  0  0
  8 18  1  0  0  0  0
  8 19  1  0  0  0  0
  9 20  1  0  0  0  0
  9 21  1  0  0  0  0
 10 22  1  0  0  0  0
 10 23  1  0  0  0  0
 10 24  1  0  0  0  0
 11 25  1  0  0  0  0
 11 26  1  0  0  0  0
 11 27  1  0  0  0  0
 12 28  1  0  0  0  0
 12 29  1  0  0  0  0
 12 30  1  0  0  0  0
 13 31  1  0  0  0  0
 13 32  1  0  0  0  0
M  CHG  1   4   1
M  END
> <PUBCHEM_COMPOUND_CID>
13426

> <PUBCHEM_CONFORMER_RMSD>
0.6

> <PUBCHEM_CONFORMER_DIVERSEORDER>
1

> <PUBCHEM_MMFF94_PARTIAL_CHARGES>
13
1 -0.56
10 0.5
11 0.5
12 0.5
13 0.56
2 -0.56
3 -0.68
33 0.4
4 -1.01
6 0.5
7 0.28
8 0.28
9 0.28

> <PUBCHEM_EFFECTIVE_ROTOR_COUNT>
4.2

> <PUBCHEM_PHARMACOPHORE_FEATURES>
6
1 1 acceptor
1 2 acceptor
1 3 acceptor
1 3 donor
1 4 cation
6 1 2 5 7 8 13 rings

> <PUBCHEM_HEAVY_ATOM_COUNT>
13

> <PUBCHEM_ATOM_DEF_STEREO_COUNT>
0

> <PUBCHEM_ATOM_UDEF_STEREO_COUNT>
0

> <PUBCHEM_BOND_DEF_STEREO_COUNT>
0

> <PUBCHEM_BOND_UDEF_STEREO_COUNT>
0

> <PUBCHEM_ISOTOPIC_ATOM_COUNT>
0

> <PUBCHEM_COMPONENT_COUNT>
1

> <PUBCHEM_CACTVS_TAUTO_COUNT>
1

> <PUBCHEM_CONFORMER_ID>
0000347200000001

> <PUBCHEM_MMFF94_ENERGY>
128.6164

> <PUBCHEM_FEATURE_SELFOVERLAP>
30.477

> <PUBCHEM_SHAPE_FINGERPRINT>
12138202 97 18113893832160042702
12423570 1 15004117869518288807
12897270 3 15213306334655410333
12932764 1 18113343011162746276
13024252 1 14907912526354368439
13380535 21 18340476795103792262
14817 1 14640263045169787459
15775835 57 18114181972910405893
16945 1 18121797040072905023
18186145 218 17822301192474390285
20082192 1 18058184855283194420
20653085 51 18339646740691147133
20715346 28 17846212289023166508
21028194 46 18333455356355135613
21040471 1 18411146826583412302
21501502 16 18411141307687996198
21930827 45 18335426703357487850
23235685 24 18408318891193016264
23559900 14 18113612362749754620
369184 2 18334017185301078021
5084963 1 18334870436394226285
528862 383 18268710700063876658
528886 8 18341055202174915940
81228 2 18050012090675270571

> <PUBCHEM_SHAPE_MULTIPOLES>
244.94
4.06
1.66
1.26
1.21
1.03
-0.04
-1.57
0.16
-0.13
-0.16
-0.23
-0.28
-0.02

> <PUBCHEM_SHAPE_SELFOVERLAP>
484.497

> <PUBCHEM_SHAPE_VOLUME>
144.7

> <PUBCHEM_COORDINATE_TYPE>
2
5
10

$$$$

