17395360
  -OEChem-06241222493D

 38 40  0     0  0  0  0  0  0999 V2000
   -1.6239   -1.8795    1.7635 S   0  0  0  0  0  0  0  0  0  0  0  0
    3.0854    0.6660    0.6792 S   0  0  0  0  0  0  0  0  0  0  0  0
   -0.2473    1.0086   -1.7889 O   0  0  0  0  0  0  0  0  0  0  0  0
    0.5444    0.1386    2.1636 O   0  0  0  0  0  0  0  0  0  0  0  0
   -2.2365   -0.5158   -0.5238 N   0  0  0  0  0  0  0  0  0  0  0  0
   -2.5774   -2.6731   -0.6552 N   0  0  0  0  0  0  0  0  0  0  0  0
   -2.9216   -2.1033   -1.8648 N   0  0  0  0  0  0  0  0  0  0  0  0
   -1.9040    0.7491   -0.0691 C   0  0  0  0  0  0  0  0  0  0  0  0
   -0.9145    1.4987   -0.7055 C   0  0  0  0  0  0  0  0  0  0  0  0
   -2.1693   -1.7058    0.1349 C   0  0  0  0  0  0  0  0  0  0  0  0
   -2.5713    1.2725    1.0385 C   0  0  0  0  0  0  0  0  0  0  0  0
    0.1564   -2.1430    1.5180 C   0  0  0  0  0  0  0  0  0  0  0  0
    2.1719   -0.7819    0.7118 C   0  0  0  0  0  0  0  0  0  0  0  0
    0.9361   -0.8337    1.5163 C   0  0  0  0  0  0  0  0  0  0  0  0
   -2.7105   -0.8102   -1.7662 C   0  0  0  0  0  0  0  0  0  0  0  0
   -0.5927    2.7716   -0.2343 C   0  0  0  0  0  0  0  0  0  0  0  0
   -2.2491    2.5453    1.5096 C   0  0  0  0  0  0  0  0  0  0  0  0
    4.2477   -0.0272   -0.3700 C   0  0  0  0  0  0  0  0  0  0  0  0
    2.7418   -1.7702   -0.0604 C   0  0  0  0  0  0  0  0  0  0  0  0
   -1.2598    3.2948    0.8733 C   0  0  0  0  0  0  0  0  0  0  0  0
    3.9444   -1.3331   -0.6870 C   0  0  0  0  0  0  0  0  0  0  0  0
    5.4032    0.7829   -0.8126 C   0  0  0  0  0  0  0  0  0  0  0  0
    0.7466    1.8488   -2.3709 C   0  0  0  0  0  0  0  0  0  0  0  0
   -3.3602    0.7167    1.5394 H   0  0  0  0  0  0  0  0  0  0  0  0
    0.5371   -2.7554    2.3414 H   0  0  0  0  0  0  0  0  0  0  0  0
    0.2916   -2.6965    0.5865 H   0  0  0  0  0  0  0  0  0  0  0  0
   -2.8862   -0.0755   -2.5403 H   0  0  0  0  0  0  0  0  0  0  0  0
    0.1616    3.4135   -0.6758 H   0  0  0  0  0  0  0  0  0  0  0  0
   -2.7716    2.9546    2.3692 H   0  0  0  0  0  0  0  0  0  0  0  0
    2.3418   -2.7680   -0.1813 H   0  0  0  0  0  0  0  0  0  0  0  0
   -1.0108    4.2862    1.2404 H   0  0  0  0  0  0  0  0  0  0  0  0
    4.5537   -1.9502   -1.3351 H   0  0  0  0  0  0  0  0  0  0  0  0
    6.0567    0.2074   -1.4770 H   0  0  0  0  0  0  0  0  0  0  0  0
    6.0047    1.1085    0.0427 H   0  0  0  0  0  0  0  0  0  0  0  0
    5.0718    1.6703   -1.3621 H   0  0  0  0  0  0  0  0  0  0  0  0
    0.3057    2.7585   -2.7929 H   0  0  0  0  0  0  0  0  0  0  0  0
    1.5612    2.0680   -1.6745 H   0  0  0  0  0  0  0  0  0  0  0  0
    1.1870    1.2937   -3.2059 H   0  0  0  0  0  0  0  0  0  0  0  0
  1 10  1  0  0  0  0
  1 12  1  0  0  0  0
  2 13  1  0  0  0  0
  2 18  1  0  0  0  0
  3  9  1  0  0  0  0
  3 23  1  0  0  0  0
  4 14  2  0  0  0  0
  5  8  1  0  0  0  0
  5 10  1  0  0  0  0
  5 15  1  0  0  0  0
  6  7  1  0  0  0  0
  6 10  2  0  0  0  0
  7 15  2  0  0  0  0
  8  9  1  0  0  0  0
  8 11  2  0  0  0  0
  9 16  2  0  0  0  0
 11 17  1  0  0  0  0
 11 24  1  0  0  0  0
 12 14  1  0  0  0  0
 12 25  1  0  0  0  0
 12 26  1  0  0  0  0
 13 14  1  0  0  0  0
 13 19  2  0  0  0  0
 15 27  1  0  0  0  0
 16 20  1  0  0  0  0
 16 28  1  0  0  0  0
 17 20  2  0  0  0  0
 17 29  1  0  0  0  0
 18 21  2  0  0  0  0
 18 22  1  0  0  0  0
 19 21  1  0  0  0  0
 19 30  1  0  0  0  0
 20 31  1  0  0  0  0
 21 32  1  0  0  0  0
 22 33  1  0  0  0  0
 22 34  1  0  0  0  0
 22 35  1  0  0  0  0
 23 36  1  0  0  0  0
 23 37  1  0  0  0  0
 23 38  1  0  0  0  0
M  END
> <PUBCHEM_COMPOUND_CID>
17395360

> <PUBCHEM_CONFORMER_RMSD>
1.2

> <PUBCHEM_CONFORMER_DIVERSEORDER>
4
60
5
103
51
41
17
3
35
62
11
54
50
98
1
56
42
21
80
113
6
102
59
90
57
7
13
87
96
22
2
86
64
99
43
49
55
108
70
93
28
67
37
45
63
19
81
73
78
16
83
68
25
71
91
104
30
85
97
110
14
94
26
53
58
33
24
82
9
69
100
18
107
75
38
111
15
34
39
88
27
48
23
29
66
20
44
61
112
106
31
46
52
8
32
65
105
10
109
114
12
84
77
101
74
72
92
40
79
89
95
76
36
47

> <PUBCHEM_MMFF94_PARTIAL_CHARGES>
30
1 -0.29
10 0.24
11 -0.15
12 0.29
13 -0.05
14 0.59
15 0.04
16 -0.15
17 -0.15
18 -0.14
19 -0.15
2 -0.08
20 -0.15
21 -0.15
22 0.18
23 0.28
24 0.15
27 0.15
28 0.15
29 0.15
3 -0.36
30 0.15
31 0.15
32 0.15
4 -0.57
5 0.33
6 -0.34
7 -0.34
8 -0.02
9 0.08

> <PUBCHEM_EFFECTIVE_ROTOR_COUNT>
6

> <PUBCHEM_PHARMACOPHORE_FEATURES>
7
1 3 acceptor
1 4 acceptor
3 5 6 10 cation
3 5 7 15 cation
5 2 13 18 19 21 rings
5 5 6 7 10 15 rings
6 8 9 11 16 17 20 rings

> <PUBCHEM_HEAVY_ATOM_COUNT>
23

> <PUBCHEM_ATOM_DEF_STEREO_COUNT>
0

> <PUBCHEM_ATOM_UDEF_STEREO_COUNT>
0

> <PUBCHEM_BOND_DEF_STEREO_COUNT>
0

> <PUBCHEM_BOND_UDEF_STEREO_COUNT>
0

> <PUBCHEM_ISOTOPIC_ATOM_COUNT>
0

> <PUBCHEM_COMPONENT_COUNT>
1

> <PUBCHEM_CACTVS_TAUTO_COUNT>
2

> <PUBCHEM_CONFORMER_ID>
01096EA000000004

> <PUBCHEM_MMFF94_ENERGY>
71.2437

> <PUBCHEM_FEATURE_SELFOVERLAP>
38.023

> <PUBCHEM_SHAPE_FINGERPRINT>
10498660 4 17775010093768068342
11578080 2 16950579765391261106
12156800 1 17047887721291912155
12173636 292 17972890433752951016
12596599 1 18340487863287093052
12788726 201 18336558204197245969
128993 33 17909834575997840088
13032168 30 18343584010526261124
13149001 5 17697897881521420419
14123250 116 18340484586010768064
14142880 1 18130500933121879713
14251757 17 17129874811376566822
14955137 171 18334853871592069603
17357779 13 18269836415682413546
17492 54 17202502021057160142
18785283 64 17036676203091906241
19930381 70 17828774932492648816
20600515 1 17699320709596538936
20905425 154 16691336642921456898
21623110 236 17701524127052443484
23402539 116 18131072628282700226
23419403 2 16052617294804721745
23557571 272 18270672057320529634
238 59 16833501829903261677
35225 105 18117559745713930145
469060 322 15697416837604438131
6287921 2 17984394568501289334
6786 2 17099716582127410025
81228 2 18342748437159788146
84936 31 16814926208481246379

> <PUBCHEM_SHAPE_MULTIPOLES>
454.35
6.79
3.43
2.08
9.89
0.95
-0.36
-0.64
-1.7
-2.61
0.33
-1.06
-0.04
-1.42

> <PUBCHEM_SHAPE_SELFOVERLAP>
952.98

> <PUBCHEM_SHAPE_VOLUME>
259.6

> <PUBCHEM_COORDINATE_TYPE>
2
5
10

$$$$

