10904
  -OEChem-06261205062D

  9  7  0     0  0  0  0  0  0999 V2000
    1.7320    1.1200    0.0000 O   0  0  0  0  0  0  0  0  0  0  0  0
    0.0000    1.1200    0.0000 O   0  0  0  0  0  0  0  0  0  0  0  0
    1.1345    3.7400    0.0000 N   0  0  0  0  0  0  0  0  0  0  0  0
    0.8660    0.6200    0.0000 C   0  0  0  0  0  0  0  0  0  0  0  0
    0.8660    0.0000    0.0000 H   0  0  0  0  0  0  0  0  0  0  0  0
    2.2690    0.8100    0.0000 H   0  0  0  0  0  0  0  0  0  0  0  0
    1.6714    4.0500    0.0000 H   0  0  0  0  0  0  0  0  0  0  0  0
    0.5976    4.0500    0.0000 H   0  0  0  0  0  0  0  0  0  0  0  0
    1.1345    3.1200    0.0000 H   0  0  0  0  0  0  0  0  0  0  0  0
  1  4  1  0  0  0  0
  1  6  1  0  0  0  0
  2  4  2  0  0  0  0
  3  7  1  0  0  0  0
  3  8  1  0  0  0  0
  3  9  1  0  0  0  0
  4  5  1  0  0  0  0
M  END
> <PUBCHEM_COMPOUND_CID>
10904

> <PUBCHEM_COMPOUND_CANONICALIZED>
1

> <PUBCHEM_CACTVS_COMPLEXITY>
10.3

> <PUBCHEM_CACTVS_HBOND_ACCEPTOR>
3

> <PUBCHEM_CACTVS_HBOND_DONOR>
2

> <PUBCHEM_CACTVS_ROTATABLE_BOND>
0

> <PUBCHEM_CACTVS_SUBSKEYS>
AAADcYACMAAAAAAAAAAAAAAAAAAAAAAAAAAAAAAAAAAAAAAAAAAAEgAQCAAAAAAAAAMACAAAAgAIAAAAiAAAAAAAAAAAAAAAAAAAEAAAAAAAAAAAAAAAAAAAAAAAAAAAAAAAAAAAAAAAAAAAAAAAAAAAAA==

> <PUBCHEM_IUPAC_OPENEYE_NAME>
ammonia; formic acid

> <PUBCHEM_IUPAC_CAS_NAME>
ammonia; formic acid

> <PUBCHEM_IUPAC_NAME>
azane; formic acid

> <PUBCHEM_IUPAC_SYSTEMATIC_NAME>
azane; methanoic acid

> <PUBCHEM_IUPAC_TRADITIONAL_NAME>
ammonia; formic acid

> <PUBCHEM_IUPAC_INCHI>
InChI=1S/CH2O2.H3N/c2-1-3;/h1H,(H,2,3);1H3

> <PUBCHEM_IUPAC_INCHIKEY>
VZTDIZULWFCMLS-UHFFFAOYSA-N

> <PUBCHEM_EXACT_MASS>
63.032028

> <PUBCHEM_MOLECULAR_FORMULA>
CH5NO2

> <PUBCHEM_MOLECULAR_WEIGHT>
63.0559

> <PUBCHEM_OPENEYE_CAN_SMILES>
C(=O)O.N

> <PUBCHEM_OPENEYE_ISO_SMILES>
C(=O)O.N

> <PUBCHEM_CACTVS_TPSA>
38.3

> <PUBCHEM_MONOISOTOPIC_WEIGHT>
63.032028

> <PUBCHEM_TOTAL_CHARGE>
0

> <PUBCHEM_HEAVY_ATOM_COUNT>
4

> <PUBCHEM_ATOM_DEF_STEREO_COUNT>
0

> <PUBCHEM_ATOM_UDEF_STEREO_COUNT>
0

> <PUBCHEM_BOND_DEF_STEREO_COUNT>
0

> <PUBCHEM_BOND_UDEF_STEREO_COUNT>
0

> <PUBCHEM_ISOTOPIC_ATOM_COUNT>
0

> <PUBCHEM_COMPONENT_COUNT>
2

> <PUBCHEM_CACTVS_TAUTO_COUNT>
1

> <PUBCHEM_COORDINATE_TYPE>
1
5
255

$$$$

