10291
  -OEChem-06261204263D

 19 20  0     0  0  0  0  0  0999 V2000
   -1.3527   -2.5846    0.0003 O   0  0  0  0  0  0  0  0  0  0  0  0
    3.3206    1.5102    0.0007 O   0  0  0  0  0  0  0  0  0  0  0  0
    3.3842   -1.1586    0.0010 O   0  0  0  0  0  0  0  0  0  0  0  0
    1.0031    1.4841   -0.0004 N   0  0  0  0  0  0  0  0  0  0  0  0
   -1.4049    1.3933   -0.0006 N   0  0  0  0  0  0  0  0  0  0  0  0
    1.0678   -1.2373   -0.0005 N   0  0  0  0  0  0  0  0  0  0  0  0
   -2.5927   -0.6489    0.0004 N   0  0  0  0  0  0  0  0  0  0  0  0
   -3.7056    1.4244    0.0009 N   0  0  0  0  0  0  0  0  0  0  0  0
   -0.1773    0.7782   -0.0007 C   0  0  0  0  0  0  0  0  0  0  0  0
   -0.1243   -0.5640   -0.0007 C   0  0  0  0  0  0  0  0  0  0  0  0
   -1.3999   -1.3570   -0.0003 C   0  0  0  0  0  0  0  0  0  0  0  0
    2.2565    0.9063   -0.0001 C   0  0  0  0  0  0  0  0  0  0  0  0
    2.2932   -0.6052   -0.0003 C   0  0  0  0  0  0  0  0  0  0  0  0
   -2.5680    0.6594    0.0002 C   0  0  0  0  0  0  0  0  0  0  0  0
    0.9340    2.4974   -0.0001 H   0  0  0  0  0  0  0  0  0  0  0  0
   -1.4149    2.4068   -0.0004 H   0  0  0  0  0  0  0  0  0  0  0  0
    1.0421   -2.2529   -0.0002 H   0  0  0  0  0  0  0  0  0  0  0  0
   -4.6254    0.9972    0.0016 H   0  0  0  0  0  0  0  0  0  0  0  0
   -3.6619    2.4376    0.0008 H   0  0  0  0  0  0  0  0  0  0  0  0
  1 11  2  0  0  0  0
  2 12  2  0  0  0  0
  3 13  2  0  0  0  0
  4  9  1  0  0  0  0
  4 12  1  0  0  0  0
  4 15  1  0  0  0  0
  5  9  1  0  0  0  0
  5 14  1  0  0  0  0
  5 16  1  0  0  0  0
  6 10  1  0  0  0  0
  6 13  1  0  0  0  0
  6 17  1  0  0  0  0
  7 11  1  0  0  0  0
  7 14  2  0  0  0  0
  8 14  1  0  0  0  0
  8 18  1  0  0  0  0
  8 19  1  0  0  0  0
  9 10  2  0  0  0  0
 10 11  1  0  0  0  0
 12 13  1  0  0  0  0
M  END
> <PUBCHEM_COMPOUND_CID>
10291

> <PUBCHEM_CONFORMER_RMSD>
0.4

> <PUBCHEM_CONFORMER_DIVERSEORDER>
1

> <PUBCHEM_MMFF94_PARTIAL_CHARGES>
19
1 -0.57
10 0.12
11 0.77
12 0.63
13 0.63
14 0.55
15 0.37
16 0.4
17 0.37
18 0.4
19 0.4
2 -0.57
3 -0.57
4 -0.54
5 -0.55
6 -0.54
7 -0.66
8 -0.85
9 0.21

> <PUBCHEM_EFFECTIVE_ROTOR_COUNT>
0

> <PUBCHEM_PHARMACOPHORE_FEATURES>
10
1 1 acceptor
1 2 acceptor
1 3 acceptor
1 4 donor
1 5 donor
1 6 donor
1 7 donor
1 8 donor
6 4 6 9 10 12 13 rings
6 5 7 9 10 11 14 rings

> <PUBCHEM_HEAVY_ATOM_COUNT>
14

> <PUBCHEM_ATOM_DEF_STEREO_COUNT>
0

> <PUBCHEM_ATOM_UDEF_STEREO_COUNT>
0

> <PUBCHEM_BOND_DEF_STEREO_COUNT>
0

> <PUBCHEM_BOND_UDEF_STEREO_COUNT>
0

> <PUBCHEM_ISOTOPIC_ATOM_COUNT>
0

> <PUBCHEM_COMPONENT_COUNT>
1

> <PUBCHEM_CACTVS_TAUTO_COUNT>
33

> <PUBCHEM_CONFORMER_ID>
0000283300000001

> <PUBCHEM_MMFF94_ENERGY>
37.2158

> <PUBCHEM_FEATURE_SELFOVERLAP>
50.944

> <PUBCHEM_SHAPE_FINGERPRINT>
10608611 8 18409732824539311224
10967382 1 18338517559355203204
12932764 1 17459471052637819914
13380535 21 18338506457102152380
13380535 76 18408044030476523575
14144814 61 18411136922225303913
14325111 11 18410575080421131969
14897335 6 18410017615146157476
14911166 2 18337385075632819766
15536298 74 18334576841631755240
15775835 57 18413383241697844020
16945 1 18338517563697649766
18186145 218 18336546135244283181
193761 8 18122624955417711429
19973954 147 18339359647944490934
20201158 50 18261673787007046870
20510252 161 18261388927965333425
20645476 183 17987776562730515430
20871998 184 18116427047090278959
21501502 16 18410578344754370126
2334 1 18338797793250051530
23402655 69 18334869346195590141
23463225 33 18341051899650909914
23552423 10 18200312096160548854
23559900 14 18334010602181823732
2748010 2 18410289168811685518
3312278 4 18336260124813645984
528886 8 18338241573531293851
6333449 129 18410014290994301765
69090 78 18409736170571646167
7364860 26 18334295405325697950

> <PUBCHEM_SHAPE_MULTIPOLES>
245.6
5.17
2.06
0.56
0.5
0.63
0
-1.31
0
-0.37
0
0
0
0

> <PUBCHEM_SHAPE_SELFOVERLAP>
538.19

> <PUBCHEM_SHAPE_VOLUME>
129.3

> <PUBCHEM_COORDINATE_TYPE>
2
5
10

$$$$

