17395457
  -OEChem-06241222503D

 41 42  0     1  0  0  0  0  0999 V2000
   -5.9025   -2.2514    0.5087 Cl  0  0  0  0  0  0  0  0  0  0  0  0
    2.5506   -1.6196   -1.1258 O   0  0  0  0  0  0  0  0  0  0  0  0
    3.0390    1.8710    1.8378 O   0  0  0  0  0  0  0  0  0  0  0  0
    0.0739    1.3560    0.2071 O   0  0  0  0  0  0  0  0  0  0  0  0
   -6.2895    0.4409   -0.7722 O   0  0  0  0  0  0  0  0  0  0  0  0
    4.2638    1.1867   -0.0252 N   0  0  0  0  0  0  0  0  0  0  0  0
    2.4658    0.0027    0.5528 N   0  0  0  0  0  0  0  0  0  0  0  0
   -1.0605   -0.6046    0.8298 N   0  0  0  0  0  0  0  0  0  0  0  0
    4.2160    0.1424   -1.0170 C   0  0  1  0  0  0  0  0  0  0  0  0
    5.4552   -0.7283   -0.9947 C   0  0  0  0  0  0  0  0  0  0  0  0
    2.9799   -0.6208   -0.5629 C   0  0  0  0  0  0  0  0  0  0  0  0
    6.6804    0.0471   -1.4877 C   0  0  0  0  0  0  0  0  0  0  0  0
    5.7127   -1.2817    0.4100 C   0  0  0  0  0  0  0  0  0  0  0  0
    3.2252    1.1021    0.9036 C   0  0  0  0  0  0  0  0  0  0  0  0
    1.2830   -0.4372    1.2653 C   0  0  0  0  0  0  0  0  0  0  0  0
    0.0443    0.2323    0.6981 C   0  0  0  0  0  0  0  0  0  0  0  0
   -2.3918   -0.3462    0.4253 C   0  0  0  0  0  0  0  0  0  0  0  0
   -3.3835   -1.3042    0.6353 C   0  0  0  0  0  0  0  0  0  0  0  0
   -2.7120    0.8671   -0.1839 C   0  0  0  0  0  0  0  0  0  0  0  0
   -4.6956   -1.0491    0.2365 C   0  0  0  0  0  0  0  0  0  0  0  0
   -4.0240    1.1222   -0.5831 C   0  0  0  0  0  0  0  0  0  0  0  0
   -5.0159    0.1642   -0.3728 C   0  0  0  0  0  0  0  0  0  0  0  0
   -6.5146    1.7084   -1.3850 C   0  0  0  0  0  0  0  0  0  0  0  0
    4.0268    0.5964   -1.9947 H   0  0  0  0  0  0  0  0  0  0  0  0
    5.3029   -1.5803   -1.6698 H   0  0  0  0  0  0  0  0  0  0  0  0
    4.9509    1.9340   -0.0210 H   0  0  0  0  0  0  0  0  0  0  0  0
    7.5546   -0.6108   -1.5409 H   0  0  0  0  0  0  0  0  0  0  0  0
    6.5066    0.4509   -2.4906 H   0  0  0  0  0  0  0  0  0  0  0  0
    6.9316    0.8803   -0.8231 H   0  0  0  0  0  0  0  0  0  0  0  0
    6.5899   -1.9389    0.3965 H   0  0  0  0  0  0  0  0  0  0  0  0
    4.8745   -1.8826    0.7760 H   0  0  0  0  0  0  0  0  0  0  0  0
    5.9174   -0.4910    1.1394 H   0  0  0  0  0  0  0  0  0  0  0  0
    1.3662   -0.1584    2.3208 H   0  0  0  0  0  0  0  0  0  0  0  0
    1.2118   -1.5263    1.1787 H   0  0  0  0  0  0  0  0  0  0  0  0
   -0.9181   -1.5104    1.2712 H   0  0  0  0  0  0  0  0  0  0  0  0
   -3.1314   -2.2499    1.1106 H   0  0  0  0  0  0  0  0  0  0  0  0
   -1.9995    1.6559   -0.3799 H   0  0  0  0  0  0  0  0  0  0  0  0
   -4.1954    2.0863   -1.0492 H   0  0  0  0  0  0  0  0  0  0  0  0
   -7.5790    1.7577   -1.6381 H   0  0  0  0  0  0  0  0  0  0  0  0
   -5.9622    1.8076   -2.3257 H   0  0  0  0  0  0  0  0  0  0  0  0
   -6.3169    2.5340   -0.6928 H   0  0  0  0  0  0  0  0  0  0  0  0
  1 20  1  0  0  0  0
  2 11  2  0  0  0  0
  3 14  2  0  0  0  0
  4 16  2  0  0  0  0
  5 22  1  0  0  0  0
  5 23  1  0  0  0  0
  6  9  1  0  0  0  0
  6 14  1  0  0  0  0
  6 26  1  0  0  0  0
  7 11  1  0  0  0  0
  7 14  1  0  0  0  0
  7 15  1  0  0  0  0
  8 16  1  0  0  0  0
  8 17  1  0  0  0  0
  8 35  1  0  0  0  0
  9 10  1  0  0  0  0
  9 11  1  0  0  0  0
  9 24  1  0  0  0  0
 10 12  1  0  0  0  0
 10 13  1  0  0  0  0
 10 25  1  0  0  0  0
 12 27  1  0  0  0  0
 12 28  1  0  0  0  0
 12 29  1  0  0  0  0
 13 30  1  0  0  0  0
 13 31  1  0  0  0  0
 13 32  1  0  0  0  0
 15 16  1  0  0  0  0
 15 33  1  0  0  0  0
 15 34  1  0  0  0  0
 17 18  2  0  0  0  0
 17 19  1  0  0  0  0
 18 20  1  0  0  0  0
 18 36  1  0  0  0  0
 19 21  2  0  0  0  0
 19 37  1  0  0  0  0
 20 22  2  0  0  0  0
 21 22  1  0  0  0  0
 21 38  1  0  0  0  0
 23 39  1  0  0  0  0
 23 40  1  0  0  0  0
 23 41  1  0  0  0  0
M  END
> <PUBCHEM_COMPOUND_CID>
17395457

> <PUBCHEM_CONFORMER_RMSD>
0.8

> <PUBCHEM_CONFORMER_DIVERSEORDER>
3
61
155
177
201
18
190
166
209
214
120
175
210
161
197
27
50
183
158
25
151
145
10
169
68
173
115
103
74
78
80
147
129
133
79
71
205
5
198
72
116
128
203
98
156
33
170
73
184
89
26
104
82
213
99
95
81
192
8
178
180
167
119
54
160
124
53
114
86
109
140
47
137
193
15
134
127
60
111
42
122
199
125
123
13
207
22
185
32
148
31
172
106
163
34
131
58
64
69
43
46
152
108
44
14
186
70
38
96
41
56
12
191
9
63
6
165
91
150
154
97
212
188
181
139
110
90
59
57
176
189
94
118
1
88
202
179
204
121
85
135
132
141
211
149
196
174
92
87
66
2
30
36
182
17
49
77
117
206
45
143
168
159
187
29
157
164
21
84
28
24
83
112
55
195
208
62
11
105
171
136
162
146
138
35
102
153
130
144
126
113
7
101
52
37
23
200
48
142
76
4
107
67
93
20
19
75
194
100
16
39
51
65
40

> <PUBCHEM_MMFF94_PARTIAL_CHARGES>
25
1 -0.18
11 0.57
14 0.69
15 0.36
16 0.57
17 0.12
18 -0.15
19 -0.15
2 -0.57
20 0.18
21 -0.15
22 0.08
23 0.28
26 0.37
3 -0.57
35 0.37
36 0.15
37 0.15
38 0.15
4 -0.57
5 -0.36
6 -0.73
7 -0.42
8 -0.55
9 0.36

> <PUBCHEM_EFFECTIVE_ROTOR_COUNT>
6.6

> <PUBCHEM_PHARMACOPHORE_FEATURES>
9
1 2 acceptor
1 3 acceptor
1 4 acceptor
1 5 acceptor
1 6 donor
1 8 donor
3 10 12 13 hydrophobe
5 6 7 9 11 14 rings
6 17 18 19 20 21 22 rings

> <PUBCHEM_HEAVY_ATOM_COUNT>
23

> <PUBCHEM_ATOM_DEF_STEREO_COUNT>
0

> <PUBCHEM_ATOM_UDEF_STEREO_COUNT>
1

> <PUBCHEM_BOND_DEF_STEREO_COUNT>
0

> <PUBCHEM_BOND_UDEF_STEREO_COUNT>
0

> <PUBCHEM_ISOTOPIC_ATOM_COUNT>
0

> <PUBCHEM_COMPONENT_COUNT>
1

> <PUBCHEM_CACTVS_TAUTO_COUNT>
4

> <PUBCHEM_CONFORMER_ID>
01096F0100000003

> <PUBCHEM_MMFF94_ENERGY>
60.6649

> <PUBCHEM_FEATURE_SELFOVERLAP>
45.669

> <PUBCHEM_SHAPE_FINGERPRINT>
10354089 29 13183016328678258694
10554248 39 16843632533259369327
106641 1 6627455312272875070
10670039 82 17917713560216370148
10912923 1 16056609729142010017
11315181 36 18408316688059416465
11646440 116 12751233710014499086
11719270 70 18334580187438503838
11796584 16 18131909369553867722
12166972 35 18059849541483845804
12236239 1 16630526232438654427
12390115 104 18267589199322286157
12516196 113 14923947859689560754
12616971 3 16008745784244769385
12670543 26 18343301491503310419
13631057 29 14547875202467797417
13668630 136 16515406274500212773
13760787 5 16515683308549271833
14251752 14 18202285843907123223
14251764 18 5328737482952945664
14528608 73 17561363954661454973
15183329 4 18409727399884489416
17844677 252 17821442444250352337
17857418 61 14923947855684503341
1813 80 15574704794678403328
18681886 176 18059853913976609796
200 152 17240760709577779736
20645477 70 17749101180280467702
21315763 178 14779541314006871351
21315764 119 18130503140703596766
22061861 79 17967251996570649269
221357 26 18187086182264554536
2215653 11 18261398858035242589
22393880 68 18410860949386971347
2297311 6 18413102841238118633
2303208 19 18335978671517565339
23081809 10 16773805787783210761
23557571 272 18343295955696569839
23559900 14 18335706013692066441
29717793 49 16950278520558980816
300161 21 13110965292638673624
3004659 81 18131353042297136970
34797466 226 18339355250103909589
351380 3 15357696405038393391
3545911 37 18343585157635957097
46194498 28 18335697235396306484
465052 167 17385996252852742158
542803 24 16056883524289842667
5924683 9 10663520588280387753
7495541 125 18334293154636013560

> <PUBCHEM_SHAPE_MULTIPOLES>
436.78
18.15
1.76
1.31
3.23
0.21
0.12
0.3
-7.04
2.27
0.03
-1.47
-0.29
1.68

> <PUBCHEM_SHAPE_SELFOVERLAP>
909.226

> <PUBCHEM_SHAPE_VOLUME>
251.1

> <PUBCHEM_COORDINATE_TYPE>
2
5
10

$$$$

