17396340
  -OEChem-06241222563D

 46 48  0     0  0  0  0  0  0999 V2000
   -5.1107   -1.2746    1.5842 S   0  0  0  0  0  0  0  0  0  0  0  0
    7.0418    1.3571    0.4874 O   0  0  0  0  0  0  0  0  0  0  0  0
   -4.7115    2.3829   -1.2859 O   0  0  0  0  0  0  0  0  0  0  0  0
   -0.8068   -1.5409   -0.2454 N   0  0  0  0  0  0  0  0  0  0  0  0
    1.8595   -0.5194   -0.1632 N   0  0  0  0  0  0  0  0  0  0  0  0
   -3.7604   -0.2868   -0.3865 N   0  0  0  0  0  0  0  0  0  0  0  0
   -5.5802    1.0464    0.4592 N   0  0  0  0  0  0  0  0  0  0  0  0
   -0.5375   -0.1381   -0.5838 C   0  0  0  0  0  0  0  0  0  0  0  0
    0.3230   -2.3808   -0.6620 C   0  0  0  0  0  0  0  0  0  0  0  0
    0.7251    0.3652    0.1200 C   0  0  0  0  0  0  0  0  0  0  0  0
    1.6136   -1.9526    0.0403 C   0  0  0  0  0  0  0  0  0  0  0  0
   -2.0439   -1.9937   -0.8805 C   0  0  0  0  0  0  0  0  0  0  0  0
    3.1662   -0.0465    0.0011 C   0  0  0  0  0  0  0  0  0  0  0  0
   -3.2121   -1.5167   -0.0791 C   0  0  0  0  0  0  0  0  0  0  0  0
    3.4396    0.9293    0.9597 C   0  0  0  0  0  0  0  0  0  0  0  0
    4.1954   -0.5509   -0.7938 C   0  0  0  0  0  0  0  0  0  0  0  0
   -3.8090   -2.2001    0.9595 C   0  0  0  0  0  0  0  0  0  0  0  0
    4.7420    1.4008    1.1232 C   0  0  0  0  0  0  0  0  0  0  0  0
    5.4979   -0.0794   -0.6304 C   0  0  0  0  0  0  0  0  0  0  0  0
    5.7712    0.8965    0.3280 C   0  0  0  0  0  0  0  0  0  0  0  0
   -4.7676   -0.0556    0.4261 C   0  0  0  0  0  0  0  0  0  0  0  0
    8.0461    0.7986   -0.3585 C   0  0  0  0  0  0  0  0  0  0  0  0
   -5.5075    2.1730   -0.3768 C   0  0  0  0  0  0  0  0  0  0  0  0
   -6.5744    3.1862   -0.0428 C   0  0  0  0  0  0  0  0  0  0  0  0
   -1.3592    0.5139   -0.2703 H   0  0  0  0  0  0  0  0  0  0  0  0
   -0.4210   -0.0160   -1.6694 H   0  0  0  0  0  0  0  0  0  0  0  0
    0.4611   -2.3319   -1.7506 H   0  0  0  0  0  0  0  0  0  0  0  0
    0.1298   -3.4290   -0.4031 H   0  0  0  0  0  0  0  0  0  0  0  0
    0.5483    0.4116    1.2023 H   0  0  0  0  0  0  0  0  0  0  0  0
    0.9289    1.3831   -0.2354 H   0  0  0  0  0  0  0  0  0  0  0  0
    2.4334   -2.5660   -0.3509 H   0  0  0  0  0  0  0  0  0  0  0  0
    1.5431   -2.1565    1.1166 H   0  0  0  0  0  0  0  0  0  0  0  0
   -2.1234   -1.6623   -1.9237 H   0  0  0  0  0  0  0  0  0  0  0  0
   -2.0875   -3.0911   -0.9014 H   0  0  0  0  0  0  0  0  0  0  0  0
    2.6660    1.3344    1.6058 H   0  0  0  0  0  0  0  0  0  0  0  0
    3.9994   -1.3010   -1.5558 H   0  0  0  0  0  0  0  0  0  0  0  0
   -3.5537   -3.1665    1.3709 H   0  0  0  0  0  0  0  0  0  0  0  0
    4.9499    2.1589    1.8734 H   0  0  0  0  0  0  0  0  0  0  0  0
    6.2486   -0.5116   -1.2831 H   0  0  0  0  0  0  0  0  0  0  0  0
   -6.3056    1.0248    1.1715 H   0  0  0  0  0  0  0  0  0  0  0  0
    8.1707   -0.2749   -0.1804 H   0  0  0  0  0  0  0  0  0  0  0  0
    7.8555    1.0251   -1.4129 H   0  0  0  0  0  0  0  0  0  0  0  0
    8.9943    1.2784   -0.0947 H   0  0  0  0  0  0  0  0  0  0  0  0
   -6.4738    4.0595   -0.6932 H   0  0  0  0  0  0  0  0  0  0  0  0
   -7.5631    2.7433   -0.1918 H   0  0  0  0  0  0  0  0  0  0  0  0
   -6.4698    3.5052    0.9980 H   0  0  0  0  0  0  0  0  0  0  0  0
  1 17  1  0  0  0  0
  1 21  1  0  0  0  0
  2 20  1  0  0  0  0
  2 22  1  0  0  0  0
  3 23  2  0  0  0  0
  4  8  1  0  0  0  0
  4  9  1  0  0  0  0
  4 12  1  0  0  0  0
  5 10  1  0  0  0  0
  5 11  1  0  0  0  0
  5 13  1  0  0  0  0
  6 14  1  0  0  0  0
  6 21  2  0  0  0  0
  7 21  1  0  0  0  0
  7 23  1  0  0  0  0
  7 40  1  0  0  0  0
  8 10  1  0  0  0  0
  8 25  1  0  0  0  0
  8 26  1  0  0  0  0
  9 11  1  0  0  0  0
  9 27  1  0  0  0  0
  9 28  1  0  0  0  0
 10 29  1  0  0  0  0
 10 30  1  0  0  0  0
 11 31  1  0  0  0  0
 11 32  1  0  0  0  0
 12 14  1  0  0  0  0
 12 33  1  0  0  0  0
 12 34  1  0  0  0  0
 13 15  2  0  0  0  0
 13 16  1  0  0  0  0
 14 17  2  0  0  0  0
 15 18  1  0  0  0  0
 15 35  1  0  0  0  0
 16 19  2  0  0  0  0
 16 36  1  0  0  0  0
 17 37  1  0  0  0  0
 18 20  2  0  0  0  0
 18 38  1  0  0  0  0
 19 20  1  0  0  0  0
 19 39  1  0  0  0  0
 22 41  1  0  0  0  0
 22 42  1  0  0  0  0
 22 43  1  0  0  0  0
 23 24  1  0  0  0  0
 24 44  1  0  0  0  0
 24 45  1  0  0  0  0
 24 46  1  0  0  0  0
M  END
> <PUBCHEM_COMPOUND_CID>
17396340

> <PUBCHEM_CONFORMER_RMSD>
0.8

> <PUBCHEM_CONFORMER_DIVERSEORDER>
1
101
52
25
102
33
67
21
97
40
46
80
70
73
64
92
15
120
79
116
105
119
60
98
96
100
113
59
7
77
78
37
54
104
68
94
30
24
17
87
109
91
61
71
103
20
18
12
50
4
108
28
26
111
43
106
13
107
2
69
72
48
10
121
89
118
42
95
62
44
38
56
75
16
117
11
57
84
88
110
19
122
23
81
53
6
22
5
63
47
115
29
9
93
99
31
14
36
112
90
114
27
39
49
8
45
55
41
86
66
35
85
74
32
51
76
65
3
58
34
83
82

> <PUBCHEM_MMFF94_PARTIAL_CHARGES>
30
1 -0.08
10 0.37
11 0.37
12 0.45
13 0.1
14 0.05
15 -0.15
16 -0.15
17 -0.11
18 -0.15
19 -0.15
2 -0.36
20 0.08
21 0.44
22 0.28
23 0.57
24 0.06
3 -0.57
35 0.15
36 0.15
37 0.15
38 0.15
39 0.15
4 -0.81
40 0.37
5 -0.84
6 -0.57
7 -0.49
8 0.27
9 0.27

> <PUBCHEM_EFFECTIVE_ROTOR_COUNT>
7.2

> <PUBCHEM_PHARMACOPHORE_FEATURES>
8
1 2 acceptor
1 3 acceptor
1 4 cation
1 5 cation
1 7 donor
5 1 6 14 17 21 rings
6 13 15 16 18 19 20 rings
6 4 5 8 9 10 11 rings

> <PUBCHEM_HEAVY_ATOM_COUNT>
24

> <PUBCHEM_ATOM_DEF_STEREO_COUNT>
0

> <PUBCHEM_ATOM_UDEF_STEREO_COUNT>
0

> <PUBCHEM_BOND_DEF_STEREO_COUNT>
0

> <PUBCHEM_BOND_UDEF_STEREO_COUNT>
0

> <PUBCHEM_ISOTOPIC_ATOM_COUNT>
0

> <PUBCHEM_COMPONENT_COUNT>
1

> <PUBCHEM_CACTVS_TAUTO_COUNT>
3

> <PUBCHEM_CONFORMER_ID>
0109727400000001

> <PUBCHEM_MMFF94_ENERGY>
71.4322

> <PUBCHEM_FEATURE_SELFOVERLAP>
40.597

> <PUBCHEM_SHAPE_FINGERPRINT>
10 15 18272086102387916195
10674148 151 18341896269753919296
11315181 36 17561082454500678419
12403259 118 18201714021015433919
12633257 1 16558747884606083939
13073987 5 18202281416287023627
13103583 49 16630521817692412931
13540713 4 18265316465479330127
1361 4 9150909269173724292
14211702 104 10015598224158987224
14598715 104 18115038415691919240
14647877 103 18060699524022589740
14790565 3 18268425742127041348
14849402 71 16844436125961825580
14856354 85 17203322269727477371
14950920 106 16271629097920496769
15183329 4 16660360385579273334
15461852 350 18114465561559458199
15510800 12 10231751189493796465
16079462 125 17967821522372227904
17093844 174 18261678082090355042
17780758 139 12823300122094733807
17844677 252 18270676455018523448
18643901 69 7709453923664134073
19377110 9 16200154304784351276
19784866 170 18412825793866619239
20281389 69 18408885131001637739
21033648 29 18261123940914501984
21279426 13 18260540165049848910
21756936 100 18341335509095101995
21792961 116 17894905266373773028
23402539 116 14996272609209556819
23522609 53 17274522262312992148
23559900 14 17168143387176243770
23569914 2 17028018360440551216
270888 7 18337392764099247333
2838139 119 18260835856098939620
293599 30 18261110759775986078
312425 54 17131833196173018491
314194 84 12895070691351653859
4073 2 18130782360938677730
4938544 92 17418099832337076341
5104073 3 18131070480514580131
5718773 13 9943221737800722457
6086070 43 17386021549867425618
6327066 14 18337677520499576805
7226269 152 17968090898151746394
999808 66 11600008755832969481

> <PUBCHEM_SHAPE_MULTIPOLES>
466.1
19.97
2.82
1.08
13.81
0.86
0.18
14.69
1.8
-5.56
-0.29
-0.51
-0.07
2.13

> <PUBCHEM_SHAPE_SELFOVERLAP>
967.77

> <PUBCHEM_SHAPE_VOLUME>
268.7

> <PUBCHEM_COORDINATE_TYPE>
2
5
10

$$$$

