13481
  -OEChem-06261214403D

 45 45  0     1  0  0  0  0  0999 V2000
   -1.8291   -1.2752   -1.4795 S   0  0  0  0  0  0  0  0  0  0  0  0
    2.8930    1.6612   -1.2568 O   0  0  0  0  0  0  0  0  0  0  0  0
    4.2755    2.3174    0.4655 O   0  0  0  0  0  0  0  0  0  0  0  0
   -0.5231   -0.8533   -1.9478 O   0  0  0  0  0  0  0  0  0  0  0  0
   -2.8441   -1.7052   -2.4221 O   0  0  0  0  0  0  0  0  0  0  0  0
    5.4382   -0.1336    0.5782 N   0  0  0  0  0  0  0  0  0  0  0  0
    0.4263   -1.7571    0.5728 N   0  0  0  0  0  0  0  0  0  0  0  0
   -1.6400   -2.4729   -0.2717 N   0  0  0  0  0  0  0  0  0  0  0  0
   -0.7401   -3.6219    1.5377 N   0  0  0  0  0  0  0  0  0  0  0  0
    3.2057   -0.9751   -0.0965 C   0  0  0  0  0  0  0  0  0  0  0  0
    2.5870   -0.8643    1.3061 C   0  0  0  0  0  0  0  0  0  0  0  0
    4.3385    0.0256   -0.3722 C   0  0  1  0  0  0  0  0  0  0  0  0
    1.5076   -1.9161    1.5470 C   0  0  0  0  0  0  0  0  0  0  0  0
    3.8575    1.4652   -0.3078 C   0  0  0  0  0  0  0  0  0  0  0  0
   -2.5351    0.0479   -0.5443 C   0  0  0  0  0  0  0  0  0  0  0  0
   -0.5533   -2.5884    0.6567 C   0  0  0  0  0  0  0  0  0  0  0  0
   -1.6987    0.9732    0.0560 C   0  0  0  0  0  0  0  0  0  0  0  0
   -3.9118    0.1346   -0.4293 C   0  0  0  0  0  0  0  0  0  0  0  0
   -3.6414    2.1203    0.9201 C   0  0  0  0  0  0  0  0  0  0  0  0
   -2.2561    2.0176    0.7939 C   0  0  0  0  0  0  0  0  0  0  0  0
   -4.4693    1.1788    0.3085 C   0  0  0  0  0  0  0  0  0  0  0  0
   -4.2376    3.2375    1.7078 C   0  0  0  0  0  0  0  0  0  0  0  0
    2.3504    2.9839   -1.3222 C   0  0  0  0  0  0  0  0  0  0  0  0
    3.5940   -1.9933   -0.2321 H   0  0  0  0  0  0  0  0  0  0  0  0
    2.4223   -0.8442   -0.8528 H   0  0  0  0  0  0  0  0  0  0  0  0
    2.1499    0.1332    1.4357 H   0  0  0  0  0  0  0  0  0  0  0  0
    3.3610   -0.9816    2.0729 H   0  0  0  0  0  0  0  0  0  0  0  0
    4.7362   -0.1434   -1.3801 H   0  0  0  0  0  0  0  0  0  0  0  0
    1.9549   -2.9144    1.4657 H   0  0  0  0  0  0  0  0  0  0  0  0
    1.1215   -1.7904    2.5657 H   0  0  0  0  0  0  0  0  0  0  0  0
    5.7844   -1.0916    0.5426 H   0  0  0  0  0  0  0  0  0  0  0  0
    6.2186    0.4612    0.3020 H   0  0  0  0  0  0  0  0  0  0  0  0
   -2.3804   -3.1839   -0.2156 H   0  0  0  0  0  0  0  0  0  0  0  0
   -0.6183    0.9108   -0.0293 H   0  0  0  0  0  0  0  0  0  0  0  0
   -4.5733   -0.5923   -0.8901 H   0  0  0  0  0  0  0  0  0  0  0  0
   -1.6003    2.7437    1.2670 H   0  0  0  0  0  0  0  0  0  0  0  0
   -5.5500    1.2464    0.4025 H   0  0  0  0  0  0  0  0  0  0  0  0
   -3.6051    4.1309    1.6679 H   0  0  0  0  0  0  0  0  0  0  0  0
   -5.2181    3.5217    1.3107 H   0  0  0  0  0  0  0  0  0  0  0  0
   -4.3561    2.9381    2.7539 H   0  0  0  0  0  0  0  0  0  0  0  0
   -1.5686   -4.2054    1.4939 H   0  0  0  0  0  0  0  0  0  0  0  0
   -0.0662   -3.8415    2.2626 H   0  0  0  0  0  0  0  0  0  0  0  0
    1.8647    3.2402   -0.3758 H   0  0  0  0  0  0  0  0  0  0  0  0
    1.6003    3.0043   -2.1174 H   0  0  0  0  0  0  0  0  0  0  0  0
    3.1372    3.7053   -1.5623 H   0  0  0  0  0  0  0  0  0  0  0  0
  1  4  2  0  0  0  0
  1  5  2  0  0  0  0
  1  8  1  0  0  0  0
  1 15  1  0  0  0  0
  2 14  1  0  0  0  0
  2 23  1  0  0  0  0
  3 14  2  0  0  0  0
  6 12  1  0  0  0  0
  6 31  1  0  0  0  0
  6 32  1  0  0  0  0
  7 13  1  0  0  0  0
  7 16  2  0  0  0  0
  8 16  1  0  0  0  0
  8 33  1  0  0  0  0
  9 16  1  0  0  0  0
  9 41  1  0  0  0  0
  9 42  1  0  0  0  0
 10 11  1  0  0  0  0
 10 12  1  0  0  0  0
 10 24  1  0  0  0  0
 10 25  1  0  0  0  0
 11 13  1  0  0  0  0
 11 26  1  0  0  0  0
 11 27  1  0  0  0  0
 12 14  1  0  0  0  0
 12 28  1  0  0  0  0
 13 29  1  0  0  0  0
 13 30  1  0  0  0  0
 15 17  2  0  0  0  0
 15 18  1  0  0  0  0
 17 20  1  0  0  0  0
 17 34  1  0  0  0  0
 18 21  2  0  0  0  0
 18 35  1  0  0  0  0
 19 20  2  0  0  0  0
 19 21  1  0  0  0  0
 19 22  1  0  0  0  0
 20 36  1  0  0  0  0
 21 37  1  0  0  0  0
 22 38  1  0  0  0  0
 22 39  1  0  0  0  0
 22 40  1  0  0  0  0
 23 43  1  0  0  0  0
 23 44  1  0  0  0  0
 23 45  1  0  0  0  0
M  END
> <PUBCHEM_COMPOUND_CID>
13481

> <PUBCHEM_CONFORMER_RMSD>
1

> <PUBCHEM_CONFORMER_DIVERSEORDER>
1
157
409
126
68
186
23
165
40
48
34
233
149
91
426
184
69
194
326
118
383
432
84
288
199
299
36
368
428
44
133
364
247
50
136
178
220
304
146
420
366
393
352
451
72
49
374
232
181
17
92
411
262
26
45
46
207
106
147
188
55
124
296
60
153
94
219
63
120
361
3
222
177
197
89
267
7
131
10
414
347
185
290
47
88
8
459
71
385
121
416
79
357
305
127
24
275
158
80
318
285
384
253
260
13
281
289
350
444
216
249
443
338
25
73
14
130
110
358
83
367
398
226
323
97
372
410
116
191
155
37
348
306
142
452
240
424
298
309
381
375
166
202
78
4
277
246
6
258
456
21
356
230
76
129
193
341
30
65
321
114
101
354
344
35
62
115
322
204
66
11
159
317
454
311
119
70
297
236
313
56
270
107
90
32
362
111
445
292
294
250
421
221
276
27
18
135
278
225
257
394
397
433
342
248
59
28
437
169
371
151
427
5
402
412
307
51
340
458
329
345
22
395
413
224
161
438
43
417
105
404
279
431
211
324
439
333
418
351
228
170
122
325
19
334
208
370
86
238
109
42
406
259
214
123
87
58
389
315
168
100
93
291
29
145
457
308
349
196
187
77
434
254
284
33
223
330
61
256
310
359
243
140
167
218
9
282
41
200
378
237
205
82
425
209
396
103
312
419
141
343
99
239
346
64
39
128
132
134
242
235
163
182
203
2
422
195
172
75
387
212
339
112
429
450
164
154
244
20
263
213
104
379
183
373
53
229
335
336
241
447
189
198
227
160
442
96
403
12
273
314
283
435
353
144
316
234
16
400
331
117
210
448
301
108
271
369
436
179
386
300
441
74
57
180
408
280
391
295
392
81
268
125
85
173
355
430
52
138
143
54
269
171
176
337
67
148
264
38
102
327
286
113
293
192
98
15
261
152
190
407
320
31
156
95
287
377
206
215
272
255
139
174
363
266
399
455
360
365
440
446
201
453
390
231
251
380
175
302
303
150
415
388
252
265
274
162
423
319
328
332
401
405
449
245
137
382
376
217

> <PUBCHEM_MMFF94_PARTIAL_CHARGES>
30
1 1.45
12 0.33
13 0.25
14 0.66
15 -0.01
16 0.74
17 -0.15
18 -0.15
19 -0.14
2 -0.43
20 -0.15
21 -0.15
22 0.14
23 0.28
3 -0.57
31 0.36
32 0.36
33 0.42
34 0.15
35 0.15
36 0.15
37 0.15
4 -0.65
41 0.4
42 0.4
5 -0.65
6 -0.99
7 -0.7
8 -0.79
9 -0.85

> <PUBCHEM_EFFECTIVE_ROTOR_COUNT>
9

> <PUBCHEM_PHARMACOPHORE_FEATURES>
8
1 3 acceptor
1 4 acceptor
1 5 acceptor
1 6 cation
1 6 donor
1 8 donor
1 9 donor
6 15 17 18 19 20 21 rings

> <PUBCHEM_HEAVY_ATOM_COUNT>
23

> <PUBCHEM_ATOM_DEF_STEREO_COUNT>
0

> <PUBCHEM_ATOM_UDEF_STEREO_COUNT>
1

> <PUBCHEM_BOND_DEF_STEREO_COUNT>
0

> <PUBCHEM_BOND_UDEF_STEREO_COUNT>
0

> <PUBCHEM_ISOTOPIC_ATOM_COUNT>
0

> <PUBCHEM_COMPONENT_COUNT>
1

> <PUBCHEM_CACTVS_TAUTO_COUNT>
3

> <PUBCHEM_CONFORMER_ID>
000034A900000001

> <PUBCHEM_MMFF94_ENERGY>
26.6643

> <PUBCHEM_FEATURE_SELFOVERLAP>
40.658

> <PUBCHEM_SHAPE_FINGERPRINT>
12173636 292 18339078181563489842
12539773 59 18264221222341301423
12633257 1 18131359587911380318
12788726 201 18191016803664205583
13583140 156 15841007614789854442
14123250 116 18341050692511931146
14251751 93 18260829314890225365
14251757 17 15430318087359729657
14251764 38 18045231449137095368
14468879 13 17968082101927082846
14787075 74 18340493270941614203
15163728 17 17242162681719574289
21756936 100 18410011048389231562
21864079 5 18411421704532749346
22182937 141 18200590294067027170
22749437 52 17984711021786877140
22849341 161 17771083862732304074
23227448 37 18340764862369992419
23558518 356 18268425733500001424
2637199 183 18338790234250172002
392239 28 18271227345336891515
445580 8 18265051525287633640
469060 322 15840992139902017315
474 4 18342176716978236675
5048184 11 18412259532367098032
633830 44 18263925608453876167

> <PUBCHEM_SHAPE_MULTIPOLES>
433.78
9.78
3.98
1.76
4.86
0.18
0.46
-7.41
-1.36
-0.99
-0.99
-0.76
0.5
-2.99

> <PUBCHEM_SHAPE_SELFOVERLAP>
862.725

> <PUBCHEM_SHAPE_VOLUME>
257

> <PUBCHEM_COORDINATE_TYPE>
2
5
10

$$$$

