10811
  -OEChem-06261204593D

 36 37  0     0  0  0  0  0  0999 V2000
   -2.3472    1.1571   -0.6443 S   0  0  0  0  0  0  0  0  0  0  0  0
    1.1688   -1.1758    0.2016 S   0  0  0  0  0  0  0  0  0  0  0  0
    1.2511   -2.3999   -0.5717 O   0  0  0  0  0  0  0  0  0  0  0  0
    0.8078   -1.2160    1.6062 O   0  0  0  0  0  0  0  0  0  0  0  0
   -3.1826   -1.0707    0.3066 N   0  0  0  0  0  0  0  0  0  0  0  0
    0.1651   -0.0436   -0.6271 N   0  0  0  0  0  0  0  0  0  0  0  0
   -1.8182   -1.2260    0.1352 N   0  0  0  0  0  0  0  0  0  0  0  0
    6.4544    1.5271   -0.1377 N   0  0  0  0  0  0  0  0  0  0  0  0
   -4.9818    0.6089   -0.0067 C   0  0  0  0  0  0  0  0  0  0  0  0
   -3.5203    0.1026   -0.0639 C   0  0  0  0  0  0  0  0  0  0  0  0
   -5.8999   -0.5018    0.5482 C   0  0  0  0  0  0  0  0  0  0  0  0
   -5.4550    1.0057   -1.4221 C   0  0  0  0  0  0  0  0  0  0  0  0
   -5.1649    1.8467    0.8987 C   0  0  0  0  0  0  0  0  0  0  0  0
   -1.2613   -0.1387   -0.3539 C   0  0  0  0  0  0  0  0  0  0  0  0
    2.7416   -0.3713    0.1003 C   0  0  0  0  0  0  0  0  0  0  0  0
    3.1179    0.5015    1.1054 C   0  0  0  0  0  0  0  0  0  0  0  0
    3.5633   -0.6313   -0.9816 C   0  0  0  0  0  0  0  0  0  0  0  0
    4.3576    1.1359    1.0257 C   0  0  0  0  0  0  0  0  0  0  0  0
    4.8032    0.0031   -1.0612 C   0  0  0  0  0  0  0  0  0  0  0  0
    5.2002    0.8866   -0.0575 C   0  0  0  0  0  0  0  0  0  0  0  0
   -6.9451   -0.1738    0.5839 H   0  0  0  0  0  0  0  0  0  0  0  0
   -5.8600   -1.4007   -0.0785 H   0  0  0  0  0  0  0  0  0  0  0  0
   -5.6077   -0.7914    1.5645 H   0  0  0  0  0  0  0  0  0  0  0  0
   -5.3168    0.1792   -2.1293 H   0  0  0  0  0  0  0  0  0  0  0  0
   -6.5210    1.2625   -1.4209 H   0  0  0  0  0  0  0  0  0  0  0  0
   -4.9171    1.8743   -1.8174 H   0  0  0  0  0  0  0  0  0  0  0  0
   -6.2189    2.1402    0.9655 H   0  0  0  0  0  0  0  0  0  0  0  0
   -4.8086    1.6421    1.9151 H   0  0  0  0  0  0  0  0  0  0  0  0
   -4.6086    2.7145    0.5273 H   0  0  0  0  0  0  0  0  0  0  0  0
    0.5204    0.8938   -0.8504 H   0  0  0  0  0  0  0  0  0  0  0  0
    2.4731    0.7149    1.9522 H   0  0  0  0  0  0  0  0  0  0  0  0
    3.2685   -1.3099   -1.7759 H   0  0  0  0  0  0  0  0  0  0  0  0
    4.6551    1.8236    1.8131 H   0  0  0  0  0  0  0  0  0  0  0  0
    5.4503   -0.1982   -1.9111 H   0  0  0  0  0  0  0  0  0  0  0  0
    7.0649    1.3477   -0.9237 H   0  0  0  0  0  0  0  0  0  0  0  0
    6.7423    2.1689    0.5888 H   0  0  0  0  0  0  0  0  0  0  0  0
  1 10  1  0  0  0  0
  1 14  1  0  0  0  0
  2  3  2  0  0  0  0
  2  4  2  0  0  0  0
  2  6  1  0  0  0  0
  2 15  1  0  0  0  0
  5  7  1  0  0  0  0
  5 10  2  0  0  0  0
  6 14  1  0  0  0  0
  6 30  1  0  0  0  0
  7 14  2  0  0  0  0
  8 20  1  0  0  0  0
  8 35  1  0  0  0  0
  8 36  1  0  0  0  0
  9 10  1  0  0  0  0
  9 11  1  0  0  0  0
  9 12  1  0  0  0  0
  9 13  1  0  0  0  0
 11 21  1  0  0  0  0
 11 22  1  0  0  0  0
 11 23  1  0  0  0  0
 12 24  1  0  0  0  0
 12 25  1  0  0  0  0
 12 26  1  0  0  0  0
 13 27  1  0  0  0  0
 13 28  1  0  0  0  0
 13 29  1  0  0  0  0
 15 16  2  0  0  0  0
 15 17  1  0  0  0  0
 16 18  1  0  0  0  0
 16 31  1  0  0  0  0
 17 19  2  0  0  0  0
 17 32  1  0  0  0  0
 18 20  2  0  0  0  0
 18 33  1  0  0  0  0
 19 20  1  0  0  0  0
 19 34  1  0  0  0  0
M  END
> <PUBCHEM_COMPOUND_CID>
10811

> <PUBCHEM_CONFORMER_RMSD>
0.6

> <PUBCHEM_CONFORMER_DIVERSEORDER>
8
31
17
25
36
13
11
5
2
37
32
18
34
6
22
26
20
33
19
35
9
12
15
1
30
16
29
10
27
28
23
21
24
3
7
4
14

> <PUBCHEM_MMFF94_PARTIAL_CHARGES>
24
1 -0.08
10 0.2
14 0.52
15 -0.01
16 -0.15
17 -0.15
18 -0.15
19 -0.15
2 1.45
20 0.1
3 -0.65
30 0.42
31 0.15
32 0.15
33 0.15
34 0.15
35 0.4
36 0.4
4 -0.65
5 -0.34
6 -0.7
7 -0.34
8 -0.9
9 0.18

> <PUBCHEM_EFFECTIVE_ROTOR_COUNT>
4

> <PUBCHEM_PHARMACOPHORE_FEATURES>
10
1 3 acceptor
1 4 acceptor
1 5 acceptor
1 6 donor
1 7 acceptor
1 8 cation
1 8 donor
4 9 11 12 13 hydrophobe
5 1 5 7 10 14 rings
6 15 16 17 18 19 20 rings

> <PUBCHEM_HEAVY_ATOM_COUNT>
20

> <PUBCHEM_ATOM_DEF_STEREO_COUNT>
0

> <PUBCHEM_ATOM_UDEF_STEREO_COUNT>
0

> <PUBCHEM_BOND_DEF_STEREO_COUNT>
0

> <PUBCHEM_BOND_UDEF_STEREO_COUNT>
0

> <PUBCHEM_ISOTOPIC_ATOM_COUNT>
0

> <PUBCHEM_COMPONENT_COUNT>
1

> <PUBCHEM_CACTVS_TAUTO_COUNT>
2

> <PUBCHEM_CONFORMER_ID>
00002A3B00000008

> <PUBCHEM_MMFF94_ENERGY>
43.7842

> <PUBCHEM_FEATURE_SELFOVERLAP>
52.256

> <PUBCHEM_SHAPE_FINGERPRINT>
10354089 29 16559032680030175980
11796584 16 9655577400881982373
12236239 1 16702023080052347908
12555020 224 7348880062775959797
12596602 18 15554446301352595172
12730499 353 18260822705168048710
12916748 109 18408601470224189960
13533116 47 14620522241869905608
13631057 29 18200031725777112291
13668630 136 4967614988065627148
13685833 64 9007057980698417948
13955234 65 18266458887545124882
14251751 18 10807923865176174065
14251752 14 14056990663750132731
14341114 328 17632861910323963690
14528608 73 17967821552252382597
14848160 23 11455889148372857257
15048467 5 18408039619671711057
15183329 4 14851601098573039761
15188451 53 12966838010541892041
15788980 27 9511454533609998289
17834072 33 17022907852158607647
18222031 100 11023828413987285458
19784866 170 18343864424487924071
20281389 69 18131354115432377188
20374829 77 8718827587498504291
20645477 56 18410295800431003655
20645477 70 17385999620212850918
21150785 3 17967822622094852597
21637258 2 7493011735009669972
220451 1 15864068780408553583
221357 26 17386003992299816344
22224240 67 17632579318529246547
22289505 5 17676486159975861456
23402539 116 9511460001150923483
23402655 69 17894349969339728302
23559900 14 18129932511312071334
23590187 198 10375867476896396877
26918003 58 13326854431065227285
2838139 119 18113625577325108656
2916195 48 18342459222704900241
29717793 49 5256411612990233240
300161 21 17989494026010837183
3004659 81 5833991659471933808
34797466 226 17748819700871516653
34934 24 18272658965189406839
351380 3 7493284438998667005
3545911 37 18409727361245659911
4340502 62 15052015650358077264
465052 167 11527951162596758296
5104073 3 18201434852620907947
542803 24 17603587443547196301
543368 44 18334576845921785641
559249 180 9583518703422672281
633830 44 18187091632946707806
960060 61 14417852527622935344

> <PUBCHEM_SHAPE_MULTIPOLES>
387.63
15.5
1.66
1.16
1.82
0.22
0.04
-7.33
-0.64
-0.09
0.13
-0.03
-0.09
0.57

> <PUBCHEM_SHAPE_SELFOVERLAP>
787.804

> <PUBCHEM_SHAPE_VOLUME>
228.3

> <PUBCHEM_COORDINATE_TYPE>
2
5
10

$$$$

