17396114
  -OEChem-06241222542D

 52 56  0     1  0  0  0  0  0999 V2000
    5.1724    1.5810    0.0000 O   0  0  0  0  0  0  0  0  0  0  0  0
    7.0747    2.9010    0.0000 O   0  0  0  0  0  0  0  0  0  0  0  0
    7.0747    4.9703    0.0000 O   0  0  0  0  0  0  0  0  0  0  0  0
    3.5976   -1.6625    0.0000 O   0  0  0  0  0  0  0  0  0  0  0  0
    5.8296   -4.6639    0.0000 O   0  0  0  0  0  0  0  0  0  0  0  0
    7.3603   -4.1666    0.0000 O   0  0  0  0  0  0  0  0  0  0  0  0
    3.4782    1.9411    0.0000 N   0  0  0  0  0  0  0  0  0  0  0  0
    4.7565   -0.3753    0.0000 N   0  0  0  0  0  0  0  0  0  0  0  0
    3.5827    2.9356    0.0000 C   0  0  3  0  0  0  0  0  0  0  0  0
    2.6691    3.3424    0.0000 C   0  0  0  0  0  0  0  0  0  0  0  0
    2.0000    2.5992    0.0000 C   0  0  0  0  0  0  0  0  0  0  0  0
    2.5000    1.7332    0.0000 C   0  0  0  0  0  0  0  0  0  0  0  0
    4.4487    3.4356    0.0000 C   0  0  0  0  0  0  0  0  0  0  0  0
    4.2213    1.2720    0.0000 C   0  0  0  0  0  0  0  0  0  0  0  0
    5.3147    2.9356    0.0000 C   0  0  0  0  0  0  0  0  0  0  0  0
    4.4487    4.4356    0.0000 C   0  0  0  0  0  0  0  0  0  0  0  0
    4.0134    0.2938    0.0000 C   0  0  0  0  0  0  0  0  0  0  0  0
    6.1808    3.4356    0.0000 C   0  0  0  0  0  0  0  0  0  0  0  0
    5.3147    4.9356    0.0000 C   0  0  0  0  0  0  0  0  0  0  0  0
    6.1808    4.4356    0.0000 C   0  0  0  0  0  0  0  0  0  0  0  0
    7.9808    3.4148    0.0000 C   0  0  0  0  0  0  0  0  0  0  0  0
    7.9808    4.4564    0.0000 C   0  0  0  0  0  0  0  0  0  0  0  0
    4.5486   -1.3534    0.0000 C   0  0  0  0  0  0  0  0  0  0  0  0
    5.2918   -2.0226    0.0000 C   0  0  0  0  0  0  0  0  0  0  0  0
    5.0838   -3.0007    0.0000 C   0  0  0  0  0  0  0  0  0  0  0  0
    6.2428   -1.7136    0.0000 C   0  0  0  0  0  0  0  0  0  0  0  0
    5.8270   -3.6698    0.0000 C   0  0  0  0  0  0  0  0  0  0  0  0
    6.7780   -3.3608    0.0000 C   0  0  0  0  0  0  0  0  0  0  0  0
    6.9860   -2.3827    0.0000 C   0  0  0  0  0  0  0  0  0  0  0  0
    6.7753   -4.9703    0.0000 C   0  0  0  0  0  0  0  0  0  0  0  0
    4.1026    2.5980    0.0000 H   0  0  0  0  0  0  0  0  0  0  0  0
    2.9791    3.8793    0.0000 H   0  0  0  0  0  0  0  0  0  0  0  0
    2.1675    3.7068    0.0000 H   0  0  0  0  0  0  0  0  0  0  0  0
    1.5851    3.0600    0.0000 H   0  0  0  0  0  0  0  0  0  0  0  0
    1.4984    2.2348    0.0000 H   0  0  0  0  0  0  0  0  0  0  0  0
    1.9336    1.4810    0.0000 H   0  0  0  0  0  0  0  0  0  0  0  0
    2.6916    1.1436    0.0000 H   0  0  0  0  0  0  0  0  0  0  0  0
    5.3147    2.3156    0.0000 H   0  0  0  0  0  0  0  0  0  0  0  0
    3.9118    4.7456    0.0000 H   0  0  0  0  0  0  0  0  0  0  0  0
    3.4385    0.5261    0.0000 H   0  0  0  0  0  0  0  0  0  0  0  0
    3.6848   -0.2320    0.0000 H   0  0  0  0  0  0  0  0  0  0  0  0
    5.3147    5.5556    0.0000 H   0  0  0  0  0  0  0  0  0  0  0  0
    5.3462   -0.1837    0.0000 H   0  0  0  0  0  0  0  0  0  0  0  0
    8.1898    2.8311    0.0000 H   0  0  0  0  0  0  0  0  0  0  0  0
    8.5916    3.5209    0.0000 H   0  0  0  0  0  0  0  0  0  0  0  0
    8.5916    4.3504    0.0000 H   0  0  0  0  0  0  0  0  0  0  0  0
    8.1898    5.0401    0.0000 H   0  0  0  0  0  0  0  0  0  0  0  0
    4.4942   -3.1923    0.0000 H   0  0  0  0  0  0  0  0  0  0  0  0
    6.3717   -1.1071    0.0000 H   0  0  0  0  0  0  0  0  0  0  0  0
    7.5756   -2.1911    0.0000 H   0  0  0  0  0  0  0  0  0  0  0  0
    6.5232   -5.5368    0.0000 H   0  0  0  0  0  0  0  0  0  0  0  0
    7.3121   -5.2804    0.0000 H   0  0  0  0  0  0  0  0  0  0  0  0
  1 14  2  0  0  0  0
  2 18  1  0  0  0  0
  2 21  1  0  0  0  0
  3 20  1  0  0  0  0
  3 22  1  0  0  0  0
  4 23  2  0  0  0  0
  5 27  1  0  0  0  0
  5 30  1  0  0  0  0
  6 28  1  0  0  0  0
  6 30  1  0  0  0  0
  7  9  1  0  0  0  0
  7 12  1  0  0  0  0
  7 14  1  0  0  0  0
  8 17  1  0  0  0  0
  8 23  1  0  0  0  0
  8 43  1  0  0  0  0
  9 10  1  0  0  0  0
  9 13  1  0  0  0  0
  9 31  1  0  0  0  0
 10 11  1  0  0  0  0
 10 32  1  0  0  0  0
 10 33  1  0  0  0  0
 11 12  1  0  0  0  0
 11 34  1  0  0  0  0
 11 35  1  0  0  0  0
 12 36  1  0  0  0  0
 12 37  1  0  0  0  0
 13 15  2  0  0  0  0
 13 16  1  0  0  0  0
 14 17  1  0  0  0  0
 15 18  1  0  0  0  0
 15 38  1  0  0  0  0
 16 19  2  0  0  0  0
 16 39  1  0  0  0  0
 17 40  1  0  0  0  0
 17 41  1  0  0  0  0
 18 20  2  0  0  0  0
 19 20  1  0  0  0  0
 19 42  1  0  0  0  0
 21 22  1  0  0  0  0
 21 44  1  0  0  0  0
 21 45  1  0  0  0  0
 22 46  1  0  0  0  0
 22 47  1  0  0  0  0
 23 24  1  0  0  0  0
 24 25  2  0  0  0  0
 24 26  1  0  0  0  0
 25 27  1  0  0  0  0
 25 48  1  0  0  0  0
 26 29  2  0  0  0  0
 26 49  1  0  0  0  0
 27 28  2  0  0  0  0
 28 29  1  0  0  0  0
 29 50  1  0  0  0  0
 30 51  1  0  0  0  0
 30 52  1  0  0  0  0
M  END
> <PUBCHEM_COMPOUND_CID>
17396114

> <PUBCHEM_COMPOUND_CANONICALIZED>
1

> <PUBCHEM_CACTVS_COMPLEXITY>
645

> <PUBCHEM_CACTVS_HBOND_ACCEPTOR>
6

> <PUBCHEM_CACTVS_HBOND_DONOR>
1

> <PUBCHEM_CACTVS_ROTATABLE_BOND>
4

> <PUBCHEM_CACTVS_SUBSKEYS>
AAADceB7OAAAAAAAAAAAAAAAAAAAAWJAAAA0YIAAAAAAAEiRQAAAHgAQAAAADCzhmAcwDoPABACIAiFSEACCCAAkIAAIiIGOjMgdZjKEtTu2OSrkxhGOqYe63LPOIAABAAAAQABAAAIAAACAAAAAAAAAAA==

> <PUBCHEM_IUPAC_OPENEYE_NAME>
N-[2-[2-(2,3-dihydro-1,4-benzodioxin-6-yl)pyrrolidin-1-yl]-2-oxo-ethyl]-1,3-benzodioxole-5-carboxamide

> <PUBCHEM_IUPAC_CAS_NAME>
N-[2-[2-(2,3-dihydro-1,4-benzodioxin-6-yl)-1-pyrrolidinyl]-2-oxoethyl]-1,3-benzodioxole-5-carboxamide

> <PUBCHEM_IUPAC_NAME>
N-[2-[2-(2,3-dihydro-1,4-benzodioxin-6-yl)pyrrolidin-1-yl]-2-oxoethyl]-1,3-benzodioxole-5-carboxamide

> <PUBCHEM_IUPAC_SYSTEMATIC_NAME>
N-[2-[2-(2,3-dihydro-1,4-benzodioxin-6-yl)pyrrolidin-1-yl]-2-oxidanylidene-ethyl]-1,3-benzodioxole-5-carboxamide

> <PUBCHEM_IUPAC_TRADITIONAL_NAME>
N-[2-[2-(2,3-dihydro-1,4-benzodioxin-6-yl)pyrrolidino]-2-keto-ethyl]-piperonylamide

> <PUBCHEM_IUPAC_INCHI>
InChI=1S/C22H22N2O6/c25-21(12-23-22(26)15-4-6-18-20(11-15)30-13-29-18)24-7-1-2-16(24)14-3-5-17-19(10-14)28-9-8-27-17/h3-6,10-11,16H,1-2,7-9,12-13H2,(H,23,26)

> <PUBCHEM_IUPAC_INCHIKEY>
VBGRMCXFBBUXOR-UHFFFAOYSA-N

> <PUBCHEM_XLOGP3_AA>
2.3

> <PUBCHEM_EXACT_MASS>
410.147786

> <PUBCHEM_MOLECULAR_FORMULA>
C22H22N2O6

> <PUBCHEM_MOLECULAR_WEIGHT>
410.41988

> <PUBCHEM_OPENEYE_CAN_SMILES>
C1CC(N(C1)C(=O)CNC(=O)C2=CC3=C(C=C2)OCO3)C4=CC5=C(C=C4)OCCO5

> <PUBCHEM_OPENEYE_ISO_SMILES>
C1CC(N(C1)C(=O)CNC(=O)C2=CC3=C(C=C2)OCO3)C4=CC5=C(C=C4)OCCO5

> <PUBCHEM_CACTVS_TPSA>
86.3

> <PUBCHEM_MONOISOTOPIC_WEIGHT>
410.147786

> <PUBCHEM_TOTAL_CHARGE>
0

> <PUBCHEM_HEAVY_ATOM_COUNT>
30

> <PUBCHEM_ATOM_DEF_STEREO_COUNT>
0

> <PUBCHEM_ATOM_UDEF_STEREO_COUNT>
1

> <PUBCHEM_BOND_DEF_STEREO_COUNT>
0

> <PUBCHEM_BOND_UDEF_STEREO_COUNT>
0

> <PUBCHEM_ISOTOPIC_ATOM_COUNT>
0

> <PUBCHEM_COMPONENT_COUNT>
1

> <PUBCHEM_CACTVS_TAUTO_COUNT>
2

> <PUBCHEM_COORDINATE_TYPE>
1
5
255

> <PUBCHEM_BONDANNOTATIONS>
13  15  8
13  16  8
15  18  8
16  19  8
18  20  8
19  20  8
24  25  8
24  26  8
25  27  8
26  29  8
27  28  8
28  29  8
9  13  3

$$$$

