6944
  -OEChem-06261201363D

 17 17  0     0  0  0  0  0  0999 V2000
    2.2287    1.4816   -0.0017 O   0  5  0  0  0  0  0  0  0  0  0  0
    2.3698   -0.7091    0.0004 O   0  0  0  0  0  0  0  0  0  0  0  0
    1.6947    0.3473   -0.0002 N   0  3  0  0  0  0  0  0  0  0  0  0
   -0.3641   -0.9836    0.0004 C   0  0  0  0  0  0  0  0  0  0  0  0
    0.2754    0.2560    0.0014 C   0  0  0  0  0  0  0  0  0  0  0  0
   -1.7574   -1.0496   -0.0008 C   0  0  0  0  0  0  0  0  0  0  0  0
   -0.4784    1.4296    0.0013 C   0  0  0  0  0  0  0  0  0  0  0  0
    0.4142   -2.2598   -0.0001 C   0  0  0  0  0  0  0  0  0  0  0  0
   -2.5113    0.1240   -0.0009 C   0  0  0  0  0  0  0  0  0  0  0  0
   -1.8717    1.3636    0.0001 C   0  0  0  0  0  0  0  0  0  0  0  0
   -2.2736   -2.0061   -0.0017 H   0  0  0  0  0  0  0  0  0  0  0  0
   -0.0182    2.4145    0.0017 H   0  0  0  0  0  0  0  0  0  0  0  0
    1.0115   -2.3761   -0.9104 H   0  0  0  0  0  0  0  0  0  0  0  0
    1.0117   -2.3766    0.9101 H   0  0  0  0  0  0  0  0  0  0  0  0
   -0.2681   -3.1201   -0.0002 H   0  0  0  0  0  0  0  0  0  0  0  0
   -3.5961    0.0728   -0.0019 H   0  0  0  0  0  0  0  0  0  0  0  0
   -2.4593    2.2771   -0.0002 H   0  0  0  0  0  0  0  0  0  0  0  0
  1  3  1  0  0  0  0
  2  3  2  0  0  0  0
  3  5  1  0  0  0  0
  4  5  1  0  0  0  0
  4  6  2  0  0  0  0
  4  8  1  0  0  0  0
  5  7  2  0  0  0  0
  6  9  1  0  0  0  0
  6 11  1  0  0  0  0
  7 10  1  0  0  0  0
  7 12  1  0  0  0  0
  8 13  1  0  0  0  0
  8 14  1  0  0  0  0
  8 15  1  0  0  0  0
  9 10  2  0  0  0  0
  9 16  1  0  0  0  0
 10 17  1  0  0  0  0
M  CHG  2   1  -1   3   1
M  END
> <PUBCHEM_COMPOUND_CID>
6944

> <PUBCHEM_CONFORMER_RMSD>
0.4

> <PUBCHEM_CONFORMER_DIVERSEORDER>
1

> <PUBCHEM_MMFF94_PARTIAL_CHARGES>
14
1 -0.52
10 -0.15
11 0.15
12 0.15
16 0.15
17 0.15
2 -0.52
3 0.91
4 -0.14
5 0.13
6 -0.15
7 -0.15
8 0.14
9 -0.15

> <PUBCHEM_EFFECTIVE_ROTOR_COUNT>
1

> <PUBCHEM_PHARMACOPHORE_FEATURES>
4
1 1 acceptor
1 1 anion
1 2 acceptor
6 4 5 6 7 9 10 rings

> <PUBCHEM_HEAVY_ATOM_COUNT>
10

> <PUBCHEM_ATOM_DEF_STEREO_COUNT>
0

> <PUBCHEM_ATOM_UDEF_STEREO_COUNT>
0

> <PUBCHEM_BOND_DEF_STEREO_COUNT>
0

> <PUBCHEM_BOND_UDEF_STEREO_COUNT>
0

> <PUBCHEM_ISOTOPIC_ATOM_COUNT>
0

> <PUBCHEM_COMPONENT_COUNT>
1

> <PUBCHEM_CACTVS_TAUTO_COUNT>
1

> <PUBCHEM_CONFORMER_ID>
00001B2000000001

> <PUBCHEM_MMFF94_ENERGY>
36.0952

> <PUBCHEM_FEATURE_SELFOVERLAP>
20.379

> <PUBCHEM_SHAPE_FINGERPRINT>
12423570 1 8615660565872459153
12897270 3 18411420639401796421
14325111 11 18410855460196986913
16945 1 18266740358141607879
18185500 45 17690842263586188558
193761 8 17978228597292024645
20871998 184 17900814951234127638
21040471 1 18338516339653082400
23552423 10 18342173396868302974
241688 4 17113256096744182923
2748010 2 18411417271962722589
369184 2 18335422339744620025
5084963 1 18186522124198436650
66348 1 18411419535378858411

> <PUBCHEM_SHAPE_MULTIPOLES>
189.08
3.09
2.02
0.59
0.35
0.5
0
-0.62
0
0.3
0
-0.06
0.02
0

> <PUBCHEM_SHAPE_SELFOVERLAP>
396.059

> <PUBCHEM_SHAPE_VOLUME>
107.9

> <PUBCHEM_COORDINATE_TYPE>
2
5
10

$$$$

