10855
  -OEChem-06261205023D

 28 29  0     0  0  0  0  0  0999 V2000
    0.3004   -0.0002    0.5497 N   0  0  0  0  0  0  0  0  0  0  0  0
   -0.2997   -0.0001   -0.5508 N   0  0  0  0  0  0  0  0  0  0  0  0
    5.8349    0.0008   -0.2923 N   0  0  0  0  0  0  0  0  0  0  0  0
   -5.8338    0.0007    0.2932 N   0  0  0  0  0  0  0  0  0  0  0  0
    1.6831   -0.0003    0.3408 C   0  0  0  0  0  0  0  0  0  0  0  0
   -1.6892   -0.0003   -0.3404 C   0  0  0  0  0  0  0  0  0  0  0  0
    4.4411    0.0001   -0.0786 C   0  0  0  0  0  0  0  0  0  0  0  0
   -4.4402    0.0001    0.0788 C   0  0  0  0  0  0  0  0  0  0  0  0
    2.3724    1.2078    0.2367 C   0  0  0  0  0  0  0  0  0  0  0  0
   -2.3715    1.2078   -0.2370 C   0  0  0  0  0  0  0  0  0  0  0  0
    2.3727   -1.2082    0.2354 C   0  0  0  0  0  0  0  0  0  0  0  0
   -2.3719   -1.2082   -0.2357 C   0  0  0  0  0  0  0  0  0  0  0  0
    3.7514    1.2080    0.0269 C   0  0  0  0  0  0  0  0  0  0  0  0
   -3.7506    1.2080   -0.0268 C   0  0  0  0  0  0  0  0  0  0  0  0
    3.7517   -1.2080    0.0258 C   0  0  0  0  0  0  0  0  0  0  0  0
   -3.7508   -1.2079   -0.0256 C   0  0  0  0  0  0  0  0  0  0  0  0
    1.8440    2.1541    0.3180 H   0  0  0  0  0  0  0  0  0  0  0  0
   -1.8420    2.1532   -0.3186 H   0  0  0  0  0  0  0  0  0  0  0  0
    1.8443   -2.1547    0.3156 H   0  0  0  0  0  0  0  0  0  0  0  0
   -1.8425   -2.1539   -0.3164 H   0  0  0  0  0  0  0  0  0  0  0  0
    4.2773    2.1560   -0.0528 H   0  0  0  0  0  0  0  0  0  0  0  0
   -4.2763    2.1560    0.0531 H   0  0  0  0  0  0  0  0  0  0  0  0
    4.2776   -2.1558   -0.0549 H   0  0  0  0  0  0  0  0  0  0  0  0
   -4.2768   -2.1557    0.0552 H   0  0  0  0  0  0  0  0  0  0  0  0
    6.3362   -0.8744   -0.3666 H   0  0  0  0  0  0  0  0  0  0  0  0
    6.3354    0.8765   -0.3658 H   0  0  0  0  0  0  0  0  0  0  0  0
   -6.3345    0.8764    0.3662 H   0  0  0  0  0  0  0  0  0  0  0  0
   -6.3350   -0.8746    0.3672 H   0  0  0  0  0  0  0  0  0  0  0  0
  1  2  2  0  0  0  0
  1  5  1  0  0  0  0
  2  6  1  0  0  0  0
  3  7  1  0  0  0  0
  3 25  1  0  0  0  0
  3 26  1  0  0  0  0
  4  8  1  0  0  0  0
  4 27  1  0  0  0  0
  4 28  1  0  0  0  0
  5  9  2  0  0  0  0
  5 11  1  0  0  0  0
  6 10  2  0  0  0  0
  6 12  1  0  0  0  0
  7 13  2  0  0  0  0
  7 15  1  0  0  0  0
  8 14  2  0  0  0  0
  8 16  1  0  0  0  0
  9 13  1  0  0  0  0
  9 17  1  0  0  0  0
 10 14  1  0  0  0  0
 10 18  1  0  0  0  0
 11 15  2  0  0  0  0
 11 19  1  0  0  0  0
 12 16  2  0  0  0  0
 12 20  1  0  0  0  0
 13 21  1  0  0  0  0
 14 22  1  0  0  0  0
 15 23  1  0  0  0  0
 16 24  1  0  0  0  0
M  END
> <PUBCHEM_COMPOUND_CID>
10855

> <PUBCHEM_CONFORMER_RMSD>
0.6

> <PUBCHEM_CONFORMER_DIVERSEORDER>
1
2

> <PUBCHEM_MMFF94_PARTIAL_CHARGES>
28
1 -0.18
10 -0.15
11 -0.15
12 -0.15
13 -0.15
14 -0.15
15 -0.15
16 -0.15
17 0.15
18 0.15
19 0.15
2 -0.18
20 0.15
21 0.15
22 0.15
23 0.15
24 0.15
25 0.4
26 0.4
27 0.4
28 0.4
3 -0.9
4 -0.9
5 0.18
6 0.18
7 0.1
8 0.1
9 -0.15

> <PUBCHEM_EFFECTIVE_ROTOR_COUNT>
2

> <PUBCHEM_PHARMACOPHORE_FEATURES>
6
1 3 cation
1 3 donor
1 4 cation
1 4 donor
6 5 7 9 11 13 15 rings
6 6 8 10 12 14 16 rings

> <PUBCHEM_HEAVY_ATOM_COUNT>
16

> <PUBCHEM_ATOM_DEF_STEREO_COUNT>
0

> <PUBCHEM_ATOM_UDEF_STEREO_COUNT>
0

> <PUBCHEM_BOND_DEF_STEREO_COUNT>
0

> <PUBCHEM_BOND_UDEF_STEREO_COUNT>
0

> <PUBCHEM_ISOTOPIC_ATOM_COUNT>
0

> <PUBCHEM_COMPONENT_COUNT>
1

> <PUBCHEM_CACTVS_TAUTO_COUNT>
2

> <PUBCHEM_CONFORMER_ID>
00002A6700000001

> <PUBCHEM_MMFF94_ENERGY>
63.6379

> <PUBCHEM_FEATURE_SELFOVERLAP>
30.446

> <PUBCHEM_SHAPE_FINGERPRINT>
10616163 171 18336547118634071135
12107183 9 17690280834151320041
128620 24 15770059436258035458
13081056 2 18410295795967568968
13167823 11 18410858762958369698
13533116 47 5328472444810978332
13760787 19 18335141981359426486
14123238 8 18411982472447371350
1420 363 17846491535165019323
14341114 176 18410568479077432113
15242433 33 18410293614013302414
17834072 33 18410294692023427734
18186145 218 18130797758443334442
200 152 18186239532530242099
20645477 70 18335701706320156638
21267235 1 18410567392376684258
21652331 79 18412265029956703461
2297311 6 18334285483386904405
23402539 116 18411706469243230295
23402655 69 18410294726799936380
23557571 272 18412541050187818060
23559900 14 18336834099737139169
300161 21 18410865360033073327
3545911 37 18410573989446444428
42 15 18411981364372189327
4214541 1 18410293635688514465
42788 4 18410573989446424932
474 4 17488738961495898884
4990 188 18261386759164974390
5104073 3 18410858771558510474
522135 26 18408041823227122306
542803 24 17203608189847048636
77779 3 18410575084663078916
9709674 26 18410569578542145823

> <PUBCHEM_SHAPE_MULTIPOLES>
309.35
12.28
1.37
0.67
0.01
0
0
0
0
0
0
0
0
0

> <PUBCHEM_SHAPE_SELFOVERLAP>
666.177

> <PUBCHEM_SHAPE_VOLUME>
169.9

> <PUBCHEM_COORDINATE_TYPE>
2
5
10

$$$$

