6715
  -OEChem-06261201282D

 32 34  0     1  0  0  0  0  0999 V2000
    3.7817    1.3019    0.0000 O   0  0  0  0  0  0  0  0  0  0  0  0
    7.3424    0.0721    0.0000 O   0  0  0  0  0  0  0  0  0  0  0  0
    7.3424   -1.5374    0.0000 O   0  0  0  0  0  0  0  0  0  0  0  0
    5.5301    1.2673    0.0000 O   0  0  0  0  0  0  0  0  0  0  0  0
    2.8641   -0.2119    0.0000 N   0  0  3  0  0  0  0  0  0  0  0  0
    3.7702    0.3020    0.0000 C   0  0  3  0  0  0  0  0  0  0  0  0
    4.6641   -0.2327    0.0000 C   0  0  0  0  0  0  0  0  0  0  0  0
    4.6641   -1.2327    0.0000 C   0  0  0  0  0  0  0  0  0  0  0  0
    3.7702   -1.7673    0.0000 C   0  0  0  0  0  0  0  0  0  0  0  0
    2.8641   -1.2535    0.0000 C   0  0  0  0  0  0  0  0  0  0  0  0
    5.5301    0.2673    0.0000 C   0  0  0  0  0  0  0  0  0  0  0  0
    5.5301   -1.7327    0.0000 C   0  0  0  0  0  0  0  0  0  0  0  0
    6.3961   -0.2327    0.0000 C   0  0  0  0  0  0  0  0  0  0  0  0
    6.3961   -1.2327    0.0000 C   0  0  0  0  0  0  0  0  0  0  0  0
    2.0000    0.2915    0.0000 C   0  0  0  0  0  0  0  0  0  0  0  0
    7.9260   -0.7327    0.0000 C   0  0  0  0  0  0  0  0  0  0  0  0
    6.3961    1.7673    0.0000 C   0  0  0  0  0  0  0  0  0  0  0  0
    3.2362    0.6172    0.0000 H   0  0  0  0  0  0  0  0  0  0  0  0
    3.3765   -2.2464    0.0000 H   0  0  0  0  0  0  0  0  0  0  0  0
    4.1748   -2.2371    0.0000 H   0  0  0  0  0  0  0  0  0  0  0  0
    2.2532   -1.1474    0.0000 H   0  0  0  0  0  0  0  0  0  0  0  0
    2.6550   -1.8372    0.0000 H   0  0  0  0  0  0  0  0  0  0  0  0
    5.5301   -2.3527    0.0000 H   0  0  0  0  0  0  0  0  0  0  0  0
    2.3121    0.8272    0.0000 H   0  0  0  0  0  0  0  0  0  0  0  0
    1.4643    0.6035    0.0000 H   0  0  0  0  0  0  0  0  0  0  0  0
    1.6879   -0.2443    0.0000 H   0  0  0  0  0  0  0  0  0  0  0  0
    3.2484    1.6181    0.0000 H   0  0  0  0  0  0  0  0  0  0  0  0
    8.3869   -1.1474    0.0000 H   0  0  0  0  0  0  0  0  0  0  0  0
    8.3869   -0.3179    0.0000 H   0  0  0  0  0  0  0  0  0  0  0  0
    6.7062    1.2304    0.0000 H   0  0  0  0  0  0  0  0  0  0  0  0
    6.9331    2.0773    0.0000 H   0  0  0  0  0  0  0  0  0  0  0  0
    6.0862    2.3043    0.0000 H   0  0  0  0  0  0  0  0  0  0  0  0
  1  6  1  0  0  0  0
  1 27  1  0  0  0  0
  2 13  1  0  0  0  0
  2 16  1  0  0  0  0
  3 14  1  0  0  0  0
  3 16  1  0  0  0  0
  4 11  1  0  0  0  0
  4 17  1  0  0  0  0
  5  6  1  0  0  0  0
  5 10  1  0  0  0  0
  5 15  1  0  0  0  0
  6  7  1  0  0  0  0
  6 18  1  0  0  0  0
  7  8  1  0  0  0  0
  7 11  2  0  0  0  0
  8  9  1  0  0  0  0
  8 12  2  0  0  0  0
  9 10  1  0  0  0  0
  9 19  1  0  0  0  0
  9 20  1  0  0  0  0
 10 21  1  0  0  0  0
 10 22  1  0  0  0  0
 11 13  1  0  0  0  0
 12 14  1  0  0  0  0
 12 23  1  0  0  0  0
 13 14  2  0  0  0  0
 15 24  1  0  0  0  0
 15 25  1  0  0  0  0
 15 26  1  0  0  0  0
 16 28  1  0  0  0  0
 16 29  1  0  0  0  0
 17 30  1  0  0  0  0
 17 31  1  0  0  0  0
 17 32  1  0  0  0  0
M  END
> <PUBCHEM_COMPOUND_CID>
6715

> <PUBCHEM_COMPOUND_CANONICALIZED>
1

> <PUBCHEM_CACTVS_COMPLEXITY>
288

> <PUBCHEM_CACTVS_HBOND_ACCEPTOR>
5

> <PUBCHEM_CACTVS_HBOND_DONOR>
1

> <PUBCHEM_CACTVS_ROTATABLE_BOND>
1

> <PUBCHEM_CACTVS_SUBSKEYS>
AAADccByOAAAAAAAAAAAAAAAAAAAASAAAAA8QAAAAAAAAEixAAAAHgAACAAADAThmAcyDoMABgCAAiBCAACCCAAgIAAAiAAOjIgdNyKEsRukcCpnwBWOuAfw8L4OoAABCAAYQABAAAIQADCAAAAAAAAAAA==

> <PUBCHEM_IUPAC_OPENEYE_NAME>
4-methoxy-6-methyl-7,8-dihydro-5H-[1,3]dioxolo[4,5-g]isoquinolin-5-ol

> <PUBCHEM_IUPAC_CAS_NAME>
4-methoxy-6-methyl-7,8-dihydro-5H-[1,3]dioxolo[4,5-g]isoquinolin-5-ol

> <PUBCHEM_IUPAC_NAME>
4-methoxy-6-methyl-7,8-dihydro-5H-[1,3]dioxolo[4,5-g]isoquinolin-5-ol

> <PUBCHEM_IUPAC_SYSTEMATIC_NAME>
4-methoxy-6-methyl-7,8-dihydro-5H-[1,3]dioxolo[4,5-g]isoquinolin-5-ol

> <PUBCHEM_IUPAC_TRADITIONAL_NAME>
4-methoxy-6-methyl-7,8-dihydro-5H-[1,3]dioxol[4,5-g]isoquinolin-5-ol

> <PUBCHEM_IUPAC_INCHI>
InChI=1S/C12H15NO4/c1-13-4-3-7-5-8-10(17-6-16-8)11(15-2)9(7)12(13)14/h5,12,14H,3-4,6H2,1-2H3

> <PUBCHEM_IUPAC_INCHIKEY>
PAPMYQLKLNRZIR-UHFFFAOYSA-N

> <PUBCHEM_XLOGP3_AA>
1

> <PUBCHEM_EXACT_MASS>
237.100108

> <PUBCHEM_MOLECULAR_FORMULA>
C12H15NO4

> <PUBCHEM_MOLECULAR_WEIGHT>
237.2518

> <PUBCHEM_OPENEYE_CAN_SMILES>
CN1CCC2=CC3=C(C(=C2C1O)OC)OCO3

> <PUBCHEM_OPENEYE_ISO_SMILES>
CN1CCC2=CC3=C(C(=C2C1O)OC)OCO3

> <PUBCHEM_CACTVS_TPSA>
51.2

> <PUBCHEM_MONOISOTOPIC_WEIGHT>
237.100108

> <PUBCHEM_TOTAL_CHARGE>
0

> <PUBCHEM_HEAVY_ATOM_COUNT>
17

> <PUBCHEM_ATOM_DEF_STEREO_COUNT>
0

> <PUBCHEM_ATOM_UDEF_STEREO_COUNT>
1

> <PUBCHEM_BOND_DEF_STEREO_COUNT>
0

> <PUBCHEM_BOND_UDEF_STEREO_COUNT>
0

> <PUBCHEM_ISOTOPIC_ATOM_COUNT>
0

> <PUBCHEM_COMPONENT_COUNT>
1

> <PUBCHEM_CACTVS_TAUTO_COUNT>
1

> <PUBCHEM_COORDINATE_TYPE>
1
5
255

> <PUBCHEM_BONDANNOTATIONS>
6  1  3
11  13  8
12  14  8
13  14  8
7  11  8
7  8  8
8  12  8

$$$$

