47205586
  -OEChem-06241222592D

 42 43  0     1  0  0  0  0  0999 V2000
    5.5981    3.2500    0.0000 S   0  0  0  0  0  0  0  0  0  0  0  0
    4.7320   -3.2500    0.0000 O   0  0  0  0  0  0  0  0  0  0  0  0
    5.5981    1.2500    0.0000 O   0  0  0  0  0  0  0  0  0  0  0  0
    5.0981    4.1160    0.0000 O   0  0  0  0  0  0  0  0  0  0  0  0
    6.0981    2.3840    0.0000 O   0  0  0  0  0  0  0  0  0  0  0  0
    3.8660   -1.7500    0.0000 N   0  0  0  0  0  0  0  0  0  0  0  0
    3.8660    1.2500    0.0000 N   0  0  0  0  0  0  0  0  0  0  0  0
    3.0000   -3.2500    0.0000 C   0  0  0  0  0  0  0  0  0  0  0  0
    2.0000   -3.2500    0.0000 C   0  0  0  0  0  0  0  0  0  0  0  0
    2.5000   -4.1160    0.0000 C   0  0  0  0  0  0  0  0  0  0  0  0
    3.8660   -2.7500    0.0000 C   0  0  0  0  0  0  0  0  0  0  0  0
    3.8660    0.2500    0.0000 C   0  0  0  0  0  0  0  0  0  0  0  0
    3.0000   -1.2500    0.0000 C   0  0  0  0  0  0  0  0  0  0  0  0
    4.7320   -1.2500    0.0000 C   0  0  0  0  0  0  0  0  0  0  0  0
    4.7320   -0.2500    0.0000 C   0  0  0  0  0  0  0  0  0  0  0  0
    3.0000   -0.2500    0.0000 C   0  0  0  0  0  0  0  0  0  0  0  0
    4.7320    1.7500    0.0000 C   0  0  0  0  0  0  0  0  0  0  0  0
    4.7320    2.7500    0.0000 C   0  0  3  0  0  0  0  0  0  0  0  0
    3.8660    3.2500    0.0000 C   0  0  0  0  0  0  0  0  0  0  0  0
    6.4641    3.7500    0.0000 C   0  0  0  0  0  0  0  0  0  0  0  0
    2.8395   -2.6511    0.0000 H   0  0  0  0  0  0  0  0  0  0  0  0
    1.8923   -2.6394    0.0000 H   0  0  0  0  0  0  0  0  0  0  0  0
    2.0250   -4.5146    0.0000 H   0  0  0  0  0  0  0  0  0  0  0  0
    1.4174   -3.4620    0.0000 H   0  0  0  0  0  0  0  0  0  0  0  0
    2.9750   -4.5146    0.0000 H   0  0  0  0  0  0  0  0  0  0  0  0
    4.4030    0.5600    0.0000 H   0  0  0  0  0  0  0  0  0  0  0  0
    2.3894   -1.1423    0.0000 H   0  0  0  0  0  0  0  0  0  0  0  0
    2.7880   -1.8326    0.0000 H   0  0  0  0  0  0  0  0  0  0  0  0
    4.9441   -1.8326    0.0000 H   0  0  0  0  0  0  0  0  0  0  0  0
    5.3426   -1.1423    0.0000 H   0  0  0  0  0  0  0  0  0  0  0  0
    5.3426   -0.3577    0.0000 H   0  0  0  0  0  0  0  0  0  0  0  0
    4.9441    0.3326    0.0000 H   0  0  0  0  0  0  0  0  0  0  0  0
    2.7880    0.3326    0.0000 H   0  0  0  0  0  0  0  0  0  0  0  0
    2.3894   -0.3577    0.0000 H   0  0  0  0  0  0  0  0  0  0  0  0
    3.3291    1.5600    0.0000 H   0  0  0  0  0  0  0  0  0  0  0  0
    4.7320    3.3700    0.0000 H   0  0  0  0  0  0  0  0  0  0  0  0
    4.1760    3.7869    0.0000 H   0  0  0  0  0  0  0  0  0  0  0  0
    3.3291    3.5600    0.0000 H   0  0  0  0  0  0  0  0  0  0  0  0
    3.5560    2.7131    0.0000 H   0  0  0  0  0  0  0  0  0  0  0  0
    6.7741    3.2131    0.0000 H   0  0  0  0  0  0  0  0  0  0  0  0
    7.0010    4.0600    0.0000 H   0  0  0  0  0  0  0  0  0  0  0  0
    6.1541    4.2869    0.0000 H   0  0  0  0  0  0  0  0  0  0  0  0
  1  4  2  0  0  0  0
  1  5  2  0  0  0  0
  1 18  1  0  0  0  0
  1 20  1  0  0  0  0
  2 11  2  0  0  0  0
  3 17  2  0  0  0  0
  6 11  1  0  0  0  0
  6 13  1  0  0  0  0
  6 14  1  0  0  0  0
  7 12  1  0  0  0  0
  7 17  1  0  0  0  0
  7 35  1  0  0  0  0
  8  9  1  0  0  0  0
  8 10  1  0  0  0  0
  8 11  1  0  0  0  0
  8 21  1  0  0  0  0
  9 10  1  0  0  0  0
  9 22  1  0  0  0  0
  9 24  1  0  0  0  0
 10 23  1  0  0  0  0
 10 25  1  0  0  0  0
 12 15  1  0  0  0  0
 12 16  1  0  0  0  0
 12 26  1  0  0  0  0
 13 16  1  0  0  0  0
 13 27  1  0  0  0  0
 13 28  1  0  0  0  0
 14 15  1  0  0  0  0
 14 29  1  0  0  0  0
 14 30  1  0  0  0  0
 15 31  1  0  0  0  0
 15 32  1  0  0  0  0
 16 33  1  0  0  0  0
 16 34  1  0  0  0  0
 17 18  1  0  0  0  0
 18 19  1  0  0  0  0
 18 36  1  0  0  0  0
 19 37  1  0  0  0  0
 19 38  1  0  0  0  0
 19 39  1  0  0  0  0
 20 40  1  0  0  0  0
 20 41  1  0  0  0  0
 20 42  1  0  0  0  0
M  END
> <PUBCHEM_COMPOUND_CID>
47205586

> <PUBCHEM_COMPOUND_CANONICALIZED>
1

> <PUBCHEM_CACTVS_COMPLEXITY>
485

> <PUBCHEM_CACTVS_HBOND_ACCEPTOR>
4

> <PUBCHEM_CACTVS_HBOND_DONOR>
1

> <PUBCHEM_CACTVS_ROTATABLE_BOND>
4

> <PUBCHEM_CACTVS_SUBSKEYS>
AAADceBzOABAAAAAAAAAAAAAGAAAAAAAAAAsAAAAAAAAAAAAAAAAHgQQAAAADSjFwASCAAPAAAoIAAEQEHBAAAAAABAAAIEIAAAAABIAwAAEAAAAFgCAAAAQAAAAAAAAAAAAAAAAAAAAAAAAAAAAAAAAAA==

> <PUBCHEM_IUPAC_OPENEYE_NAME>
N-[1-(cyclopropanecarbonyl)-4-piperidyl]-2-methylsulfonyl-propanamide

> <PUBCHEM_IUPAC_CAS_NAME>
N-[1-[cyclopropyl(oxo)methyl]-4-piperidinyl]-2-methylsulfonylpropanamide

> <PUBCHEM_IUPAC_NAME>
N-[1-(cyclopropanecarbonyl)piperidin-4-yl]-2-methylsulfonylpropanamide

> <PUBCHEM_IUPAC_SYSTEMATIC_NAME>
N-(1-cyclopropylcarbonylpiperidin-4-yl)-2-methylsulfonyl-propanamide

> <PUBCHEM_IUPAC_TRADITIONAL_NAME>
N-[1-(cyclopropanecarbonyl)-4-piperidyl]-2-mesyl-propionamide

> <PUBCHEM_IUPAC_INCHI>
InChI=1S/C13H22N2O4S/c1-9(20(2,18)19)12(16)14-11-5-7-15(8-6-11)13(17)10-3-4-10/h9-11H,3-8H2,1-2H3,(H,14,16)

> <PUBCHEM_IUPAC_INCHIKEY>
COWZVVCPKLTZMV-UHFFFAOYSA-N

> <PUBCHEM_XLOGP3_AA>
0.4

> <PUBCHEM_EXACT_MASS>
302.130028

> <PUBCHEM_MOLECULAR_FORMULA>
C13H22N2O4S

> <PUBCHEM_MOLECULAR_WEIGHT>
302.38978

> <PUBCHEM_OPENEYE_CAN_SMILES>
CC(C(=O)NC1CCN(CC1)C(=O)C2CC2)S(=O)(=O)C

> <PUBCHEM_OPENEYE_ISO_SMILES>
CC(C(=O)NC1CCN(CC1)C(=O)C2CC2)S(=O)(=O)C

> <PUBCHEM_CACTVS_TPSA>
91.9

> <PUBCHEM_MONOISOTOPIC_WEIGHT>
302.130028

> <PUBCHEM_TOTAL_CHARGE>
0

> <PUBCHEM_HEAVY_ATOM_COUNT>
20

> <PUBCHEM_ATOM_DEF_STEREO_COUNT>
0

> <PUBCHEM_ATOM_UDEF_STEREO_COUNT>
1

> <PUBCHEM_BOND_DEF_STEREO_COUNT>
0

> <PUBCHEM_BOND_UDEF_STEREO_COUNT>
0

> <PUBCHEM_ISOTOPIC_ATOM_COUNT>
0

> <PUBCHEM_COMPONENT_COUNT>
1

> <PUBCHEM_CACTVS_TAUTO_COUNT>
2

> <PUBCHEM_COORDINATE_TYPE>
1
5
255

> <PUBCHEM_BONDANNOTATIONS>
18  19  3

$$$$

