9760
  -OEChem-06261204023D

 20 19  0     0  0  0  0  0  0999 V2000
    2.9001   -0.9064    0.2937 F   0  0  0  0  0  0  0  0  0  0  0  0
    0.1997   -0.1173   -0.2646 C   0  0  0  0  0  0  0  0  0  0  0  0
   -1.1673    0.4208    0.1610 C   0  0  0  0  0  0  0  0  0  0  0  0
    1.3252    0.8301    0.1545 C   0  0  0  0  0  0  0  0  0  0  0  0
   -2.2894   -0.5409   -0.2290 C   0  0  0  0  0  0  0  0  0  0  0  0
    2.6847    0.3079   -0.2781 C   0  0  0  0  0  0  0  0  0  0  0  0
   -3.6530    0.0059    0.1625 C   0  0  0  0  0  0  0  0  0  0  0  0
    0.2185   -0.2520   -1.3529 H   0  0  0  0  0  0  0  0  0  0  0  0
    0.3616   -1.1040    0.1858 H   0  0  0  0  0  0  0  0  0  0  0  0
   -1.1804    0.5775    1.2466 H   0  0  0  0  0  0  0  0  0  0  0  0
   -1.3387    1.3972   -0.3083 H   0  0  0  0  0  0  0  0  0  0  0  0
    1.3155    0.9361    1.2456 H   0  0  0  0  0  0  0  0  0  0  0  0
    1.1625    1.8235   -0.2783 H   0  0  0  0  0  0  0  0  0  0  0  0
   -2.1358   -1.5103    0.2592 H   0  0  0  0  0  0  0  0  0  0  0  0
   -2.2708   -0.7160   -1.3111 H   0  0  0  0  0  0  0  0  0  0  0  0
    2.7439    0.1875   -1.3637 H   0  0  0  0  0  0  0  0  0  0  0  0
    3.4831    0.9806    0.0472 H   0  0  0  0  0  0  0  0  0  0  0  0
   -3.7165    0.1640    1.2438 H   0  0  0  0  0  0  0  0  0  0  0  0
   -4.4404   -0.6980   -0.1247 H   0  0  0  0  0  0  0  0  0  0  0  0
   -3.8514    0.9597   -0.3368 H   0  0  0  0  0  0  0  0  0  0  0  0
  1  6  1  0  0  0  0
  2  3  1  0  0  0  0
  2  4  1  0  0  0  0
  2  8  1  0  0  0  0
  2  9  1  0  0  0  0
  3  5  1  0  0  0  0
  3 10  1  0  0  0  0
  3 11  1  0  0  0  0
  4  6  1  0  0  0  0
  4 12  1  0  0  0  0
  4 13  1  0  0  0  0
  5  7  1  0  0  0  0
  5 14  1  0  0  0  0
  5 15  1  0  0  0  0
  6 16  1  0  0  0  0
  6 17  1  0  0  0  0
  7 18  1  0  0  0  0
  7 19  1  0  0  0  0
  7 20  1  0  0  0  0
M  END
> <PUBCHEM_COMPOUND_CID>
9760

> <PUBCHEM_CONFORMER_RMSD>
0.6

> <PUBCHEM_CONFORMER_DIVERSEORDER>
1
29
31
17
2
21
32
24
3
16
19
30
15
9
26
13
18
27
4
20
7
25
12
8
23
22
28
14
10
11
5
6

> <PUBCHEM_MMFF94_PARTIAL_CHARGES>
2
1 -0.34
6 0.34

> <PUBCHEM_EFFECTIVE_ROTOR_COUNT>
4

> <PUBCHEM_PHARMACOPHORE_FEATURES>
2
1 7 hydrophobe
4 2 3 4 5 hydrophobe

> <PUBCHEM_HEAVY_ATOM_COUNT>
7

> <PUBCHEM_ATOM_DEF_STEREO_COUNT>
0

> <PUBCHEM_ATOM_UDEF_STEREO_COUNT>
0

> <PUBCHEM_BOND_DEF_STEREO_COUNT>
0

> <PUBCHEM_BOND_UDEF_STEREO_COUNT>
0

> <PUBCHEM_ISOTOPIC_ATOM_COUNT>
0

> <PUBCHEM_COMPONENT_COUNT>
1

> <PUBCHEM_CACTVS_TAUTO_COUNT>
1

> <PUBCHEM_CONFORMER_ID>
0000262000000001

> <PUBCHEM_MMFF94_ENERGY>
-3.2789

> <PUBCHEM_FEATURE_SELFOVERLAP>
10.149

> <PUBCHEM_SHAPE_FINGERPRINT>
11062470 55 5473142929545902963
12932764 1 18335988588259305029
14325111 11 18410292480363157543
14390081 3 10087641498321704431
20651381 32 18342464746106546629
21293036 1 14405179564769072134
5460574 1 9655582906660556829

> <PUBCHEM_SHAPE_MULTIPOLES>
136.78
5.76
0.87
0.65
1.56
0.01
-0.02
0.63
0.24
-0.27
0.04
-0.01
0
-0.16

> <PUBCHEM_SHAPE_SELFOVERLAP>
235.433

> <PUBCHEM_SHAPE_VOLUME>
91.7

> <PUBCHEM_COORDINATE_TYPE>
2
5
10

$$$$

