5621
  -OEChem-06261200473D

 76 80  0     1  0  0  0  0  0999 V2000
    3.4579   -4.1428   -0.1975 O   0  0  0  0  0  0  0  0  0  0  0  0
   -1.8476   -2.1442    1.6947 O   0  0  0  0  0  0  0  0  0  0  0  0
   -4.6067   -2.6100   -1.9823 O   0  0  0  0  0  0  0  0  0  0  0  0
   -1.8726    3.0160    0.0962 N   0  0  0  0  0  0  0  0  0  0  0  0
   -3.5212   -2.2793    0.0637 N   0  0  0  0  0  0  0  0  0  0  0  0
    0.6721    3.0454    0.1910 C   0  0  1  0  0  0  0  0  0  0  0  0
    1.7302    2.6225   -0.8594 C   0  0  1  0  0  0  0  0  0  0  0  0
    3.1306    2.3530   -0.2517 C   0  0  1  0  0  0  0  0  0  0  0  0
   -0.6255    2.9662   -0.6537 C   0  0  1  0  0  0  0  0  0  0  0  0
    3.1502    1.4339    0.9948 C   0  0  1  0  0  0  0  0  0  0  0  0
    0.6888    2.0608    1.3867 C   0  0  0  0  0  0  0  0  0  0  0  0
    1.0388    1.4838   -1.6332 C   0  0  0  0  0  0  0  0  0  0  0  0
   -0.4716    1.6929   -1.4823 C   0  0  0  0  0  0  0  0  0  0  0  0
    2.0789    1.9030    2.0021 C   0  0  0  0  0  0  0  0  0  0  0  0
    4.1966    1.9122   -1.2590 C   0  0  0  0  0  0  0  0  0  0  0  0
    0.8841    4.4893    0.6823 C   0  0  0  0  0  0  0  0  0  0  0  0
    3.1858   -0.0523    0.6566 C   0  0  0  0  0  0  0  0  0  0  0  0
    4.0959    0.4543   -1.6835 C   0  0  0  0  0  0  0  0  0  0  0  0
    3.6879   -0.4954   -0.5863 C   0  0  0  0  0  0  0  0  0  0  0  0
   -3.0214    2.9450   -0.7968 C   0  0  0  0  0  0  0  0  0  0  0  0
    2.8240   -1.0255    1.6058 C   0  0  0  0  0  0  0  0  0  0  0  0
    3.7642   -1.8731   -0.8627 C   0  0  0  0  0  0  0  0  0  0  0  0
   -4.3184    3.0390    0.0060 C   0  0  0  0  0  0  0  0  0  0  0  0
    2.9094   -2.3903    1.3206 C   0  0  0  0  0  0  0  0  0  0  0  0
    3.3758   -2.8151    0.0844 C   0  0  0  0  0  0  0  0  0  0  0  0
   -4.4811    1.9104    1.0291 C   0  0  0  0  0  0  0  0  0  0  0  0
   -4.5225    0.5167    0.3972 C   0  0  0  0  0  0  0  0  0  0  0  0
   -4.6127   -0.5736    1.4701 C   0  0  0  0  0  0  0  0  0  0  0  0
    3.0478   -5.0513    0.8241 C   0  0  0  0  0  0  0  0  0  0  0  0
   -4.6688   -1.9770    0.8744 C   0  0  0  0  0  0  0  0  0  0  0  0
   -2.2256   -2.3346    0.5470 C   0  0  0  0  0  0  0  0  0  0  0  0
   -3.6004   -2.5665   -1.2882 C   0  0  0  0  0  0  0  0  0  0  0  0
   -1.3084   -2.6828   -0.5898 C   0  0  0  0  0  0  0  0  0  0  0  0
   -2.2144   -2.8306   -1.8009 C   0  0  0  0  0  0  0  0  0  0  0  0
    1.8525    3.4502   -1.5753 H   0  0  0  0  0  0  0  0  0  0  0  0
    3.4707    3.3375    0.1046 H   0  0  0  0  0  0  0  0  0  0  0  0
   -0.6177    3.8149   -1.3549 H   0  0  0  0  0  0  0  0  0  0  0  0
    4.1177    1.6031    1.4935 H   0  0  0  0  0  0  0  0  0  0  0  0
    0.3266    1.0705    1.0862 H   0  0  0  0  0  0  0  0  0  0  0  0
   -0.0025    2.4098    2.1643 H   0  0  0  0  0  0  0  0  0  0  0  0
    1.2781    0.4952   -1.2398 H   0  0  0  0  0  0  0  0  0  0  0  0
    1.3284    1.4994   -2.6892 H   0  0  0  0  0  0  0  0  0  0  0  0
   -0.9531    1.7817   -2.4624 H   0  0  0  0  0  0  0  0  0  0  0  0
   -0.9093    0.8206   -0.9807 H   0  0  0  0  0  0  0  0  0  0  0  0
    2.3948    2.8707    2.4119 H   0  0  0  0  0  0  0  0  0  0  0  0
    2.0155    1.2465    2.8744 H   0  0  0  0  0  0  0  0  0  0  0  0
    5.1806    2.0613   -0.7926 H   0  0  0  0  0  0  0  0  0  0  0  0
    4.1846    2.5591   -2.1443 H   0  0  0  0  0  0  0  0  0  0  0  0
    0.8342    5.2019   -0.1489 H   0  0  0  0  0  0  0  0  0  0  0  0
    1.8579    4.6283    1.1599 H   0  0  0  0  0  0  0  0  0  0  0  0
    0.1169    4.7766    1.4094 H   0  0  0  0  0  0  0  0  0  0  0  0
   -1.9129    3.8737    0.6453 H   0  0  0  0  0  0  0  0  0  0  0  0
    5.0704    0.1458   -2.0838 H   0  0  0  0  0  0  0  0  0  0  0  0
    3.3799    0.3599   -2.5073 H   0  0  0  0  0  0  0  0  0  0  0  0
   -3.0306    2.0311   -1.3972 H   0  0  0  0  0  0  0  0  0  0  0  0
   -2.9987    3.7869   -1.5003 H   0  0  0  0  0  0  0  0  0  0  0  0
    2.4784   -0.7465    2.5961 H   0  0  0  0  0  0  0  0  0  0  0  0
    4.1298   -2.2101   -1.8308 H   0  0  0  0  0  0  0  0  0  0  0  0
   -5.1677    3.0235   -0.6881 H   0  0  0  0  0  0  0  0  0  0  0  0
   -4.3618    4.0022    0.5301 H   0  0  0  0  0  0  0  0  0  0  0  0
    2.6010   -3.0636    2.1133 H   0  0  0  0  0  0  0  0  0  0  0  0
   -5.4155    2.0779    1.5795 H   0  0  0  0  0  0  0  0  0  0  0  0
   -3.6763    1.9587    1.7723 H   0  0  0  0  0  0  0  0  0  0  0  0
   -5.3795    0.4440   -0.2827 H   0  0  0  0  0  0  0  0  0  0  0  0
   -3.6191    0.3509   -0.1962 H   0  0  0  0  0  0  0  0  0  0  0  0
   -3.7606   -0.4821    2.1534 H   0  0  0  0  0  0  0  0  0  0  0  0
   -5.5140   -0.4150    2.0749 H   0  0  0  0  0  0  0  0  0  0  0  0
    3.1778   -6.0637    0.4279 H   0  0  0  0  0  0  0  0  0  0  0  0
    1.9850   -4.9347    1.0625 H   0  0  0  0  0  0  0  0  0  0  0  0
    3.6834   -4.9708    1.7125 H   0  0  0  0  0  0  0  0  0  0  0  0
   -4.6943   -2.7045    1.6940 H   0  0  0  0  0  0  0  0  0  0  0  0
   -5.5859   -2.1011    0.2885 H   0  0  0  0  0  0  0  0  0  0  0  0
   -0.5768   -1.8819   -0.7331 H   0  0  0  0  0  0  0  0  0  0  0  0
   -0.7831   -3.6164   -0.3679 H   0  0  0  0  0  0  0  0  0  0  0  0
   -2.1601   -3.8398   -2.2192 H   0  0  0  0  0  0  0  0  0  0  0  0
   -1.9634   -2.1017   -2.5771 H   0  0  0  0  0  0  0  0  0  0  0  0
  1 25  1  0  0  0  0
  1 29  1  0  0  0  0
  2 31  2  0  0  0  0
  3 32  2  0  0  0  0
  4  9  1  0  0  0  0
  4 20  1  0  0  0  0
  4 52  1  0  0  0  0
  5 30  1  0  0  0  0
  5 31  1  0  0  0  0
  5 32  1  0  0  0  0
  6  7  1  0  0  0  0
  6  9  1  0  0  0  0
  6 11  1  0  0  0  0
  6 16  1  0  0  0  0
  7  8  1  0  0  0  0
  7 12  1  0  0  0  0
  7 35  1  0  0  0  0
  8 10  1  0  0  0  0
  8 15  1  0  0  0  0
  8 36  1  0  0  0  0
  9 13  1  0  0  0  0
  9 37  1  0  0  0  0
 10 14  1  0  0  0  0
 10 17  1  0  0  0  0
 10 38  1  0  0  0  0
 11 14  1  0  0  0  0
 11 39  1  0  0  0  0
 11 40  1  0  0  0  0
 12 13  1  0  0  0  0
 12 41  1  0  0  0  0
 12 42  1  0  0  0  0
 13 43  1  0  0  0  0
 13 44  1  0  0  0  0
 14 45  1  0  0  0  0
 14 46  1  0  0  0  0
 15 18  1  0  0  0  0
 15 47  1  0  0  0  0
 15 48  1  0  0  0  0
 16 49  1  0  0  0  0
 16 50  1  0  0  0  0
 16 51  1  0  0  0  0
 17 19  2  0  0  0  0
 17 21  1  0  0  0  0
 18 19  1  0  0  0  0
 18 53  1  0  0  0  0
 18 54  1  0  0  0  0
 19 22  1  0  0  0  0
 20 23  1  0  0  0  0
 20 55  1  0  0  0  0
 20 56  1  0  0  0  0
 21 24  2  0  0  0  0
 21 57  1  0  0  0  0
 22 25  2  0  0  0  0
 22 58  1  0  0  0  0
 23 26  1  0  0  0  0
 23 59  1  0  0  0  0
 23 60  1  0  0  0  0
 24 25  1  0  0  0  0
 24 61  1  0  0  0  0
 26 27  1  0  0  0  0
 26 62  1  0  0  0  0
 26 63  1  0  0  0  0
 27 28  1  0  0  0  0
 27 64  1  0  0  0  0
 27 65  1  0  0  0  0
 28 30  1  0  0  0  0
 28 66  1  0  0  0  0
 28 67  1  0  0  0  0
 29 68  1  0  0  0  0
 29 69  1  0  0  0  0
 29 70  1  0  0  0  0
 30 71  1  0  0  0  0
 30 72  1  0  0  0  0
 31 33  1  0  0  0  0
 32 34  1  0  0  0  0
 33 34  1  0  0  0  0
 33 73  1  0  0  0  0
 33 74  1  0  0  0  0
 34 75  1  0  0  0  0
 34 76  1  0  0  0  0
M  END
> <PUBCHEM_COMPOUND_CID>
5621

> <PUBCHEM_CONFORMER_RMSD>
1.8

> <PUBCHEM_CONFORMER_DIVERSEORDER>
1
11
7
32
33
43
28
21
42
46
35
14
19
2
18
49
47
5
4
13
22
16
3
6
34
17
12
10
39
41
25
20
31
30
9
38
51
40
23
27
44
45
37
15
29
50
36
48
24
26
8

> <PUBCHEM_MMFF94_PARTIAL_CHARGES>
25
1 -0.36
10 0.14
17 -0.14
18 0.14
19 -0.14
2 -0.57
20 0.27
21 -0.15
22 -0.15
24 -0.15
25 0.08
29 0.28
3 -0.57
30 0.3
31 0.57
32 0.57
33 0.06
34 0.06
4 -0.9
5 -0.42
52 0.36
57 0.15
58 0.15
61 0.15
9 0.27

> <PUBCHEM_EFFECTIVE_ROTOR_COUNT>
11

> <PUBCHEM_PHARMACOPHORE_FEATURES>
11
1 1 acceptor
1 2 acceptor
1 3 acceptor
1 4 cation
1 4 donor
4 23 26 27 28 hydrophobe
5 5 31 32 33 34 rings
5 6 7 9 12 13 rings
6 17 19 21 22 24 25 rings
6 6 7 8 10 11 14 rings
6 8 10 15 17 18 19 rings

> <PUBCHEM_HEAVY_ATOM_COUNT>
34

> <PUBCHEM_ATOM_DEF_STEREO_COUNT>
0

> <PUBCHEM_ATOM_UDEF_STEREO_COUNT>
5

> <PUBCHEM_BOND_DEF_STEREO_COUNT>
0

> <PUBCHEM_BOND_UDEF_STEREO_COUNT>
0

> <PUBCHEM_ISOTOPIC_ATOM_COUNT>
0

> <PUBCHEM_COMPONENT_COUNT>
1

> <PUBCHEM_CACTVS_TAUTO_COUNT>
3

> <PUBCHEM_CONFORMER_ID>
000015F500000001

> <PUBCHEM_MMFF94_ENERGY>
81.4267

> <PUBCHEM_FEATURE_SELFOVERLAP>
56.033

> <PUBCHEM_SHAPE_FINGERPRINT>
10462674 296 17901105226519752470
10794284 68 17044869214520302784
10928967 22 18335130977990447447
11513181 2 18334572447369119863
11552529 35 18114458955900250065
11621639 254 17409320094577511780
11756154 5 17619918696066906370
12120059 20 18190757495388561422
12422481 6 18267561642642667705
14117953 113 17546728613499216437
17921350 177 18187074062098350028
20764821 26 18338806722365838303
20775530 9 18341335595200039986
21133410 90 17315094352535347515
24941158 1 16515690996656971208
354706 35 16756933498661609485
3737641 26 18410848854827299862
460360 51 17988382423981538149
636783 77 18197792200921956570

> <PUBCHEM_SHAPE_MULTIPOLES>
672.13
10.21
6.66
1.82
7.02
2.46
-0.09
4.33
0.02
-0.82
0.07
-0.01
0.29
-1.4

> <PUBCHEM_SHAPE_SELFOVERLAP>
1422.633

> <PUBCHEM_SHAPE_VOLUME>
375

> <PUBCHEM_COORDINATE_TYPE>
2
5
10

$$$$

