13412
  -OEChem-06261209473D

 15 15  0     0  0  0  0  0  0999 V2000
   -2.7002   -1.6049    0.0011 Cl  0  0  0  0  0  0  0  0  0  0  0  0
    2.6923   -1.6182    0.0001 Cl  0  0  0  0  0  0  0  0  0  0  0  0
    2.7247    1.5412   -0.0002 Cl  0  0  0  0  0  0  0  0  0  0  0  0
   -2.7169    1.5544   -0.0010 Cl  0  0  0  0  0  0  0  0  0  0  0  0
    0.0078    3.1240    0.0008 Cl  0  0  0  0  0  0  0  0  0  0  0  0
   -0.0037   -1.4093   -0.0002 C   0  0  0  0  0  0  0  0  0  0  0  0
   -1.2098   -0.7088   -0.0003 C   0  0  0  0  0  0  0  0  0  0  0  0
    1.2062   -0.7150    0.0000 C   0  0  0  0  0  0  0  0  0  0  0  0
    1.2099    0.6799    0.0002 C   0  0  0  0  0  0  0  0  0  0  0  0
   -1.2062    0.6860   -0.0002 C   0  0  0  0  0  0  0  0  0  0  0  0
    0.0036    1.3805    0.0001 C   0  0  0  0  0  0  0  0  0  0  0  0
   -0.0076   -2.9099   -0.0002 C   0  0  0  0  0  0  0  0  0  0  0  0
    0.8513   -3.3422    0.5209 H   0  0  0  0  0  0  0  0  0  0  0  0
   -0.8612   -3.3352    0.5357 H   0  0  0  0  0  0  0  0  0  0  0  0
   -0.0175   -3.2834   -1.0294 H   0  0  0  0  0  0  0  0  0  0  0  0
  1  7  1  0  0  0  0
  2  8  1  0  0  0  0
  3  9  1  0  0  0  0
  4 10  1  0  0  0  0
  5 11  1  0  0  0  0
  6  7  2  0  0  0  0
  6  8  1  0  0  0  0
  6 12  1  0  0  0  0
  7 10  1  0  0  0  0
  8  9  2  0  0  0  0
  9 11  1  0  0  0  0
 10 11  2  0  0  0  0
 12 13  1  0  0  0  0
 12 14  1  0  0  0  0
 12 15  1  0  0  0  0
M  END
> <PUBCHEM_COMPOUND_CID>
13412

> <PUBCHEM_CONFORMER_RMSD>
0.4

> <PUBCHEM_CONFORMER_DIVERSEORDER>
1

> <PUBCHEM_MMFF94_PARTIAL_CHARGES>
12
1 -0.18
10 0.18
11 0.18
12 0.14
2 -0.18
3 -0.18
4 -0.18
5 -0.18
6 -0.14
7 0.18
8 0.18
9 0.18

> <PUBCHEM_EFFECTIVE_ROTOR_COUNT>
0

> <PUBCHEM_PHARMACOPHORE_FEATURES>
1
6 6 7 8 9 10 11 rings

> <PUBCHEM_HEAVY_ATOM_COUNT>
12

> <PUBCHEM_ATOM_DEF_STEREO_COUNT>
0

> <PUBCHEM_ATOM_UDEF_STEREO_COUNT>
0

> <PUBCHEM_BOND_DEF_STEREO_COUNT>
0

> <PUBCHEM_BOND_UDEF_STEREO_COUNT>
0

> <PUBCHEM_ISOTOPIC_ATOM_COUNT>
0

> <PUBCHEM_COMPONENT_COUNT>
1

> <PUBCHEM_CACTVS_TAUTO_COUNT>
1

> <PUBCHEM_CONFORMER_ID>
0000346400000001

> <PUBCHEM_MMFF94_ENERGY>
34.9251

> <PUBCHEM_FEATURE_SELFOVERLAP>
5.074

> <PUBCHEM_SHAPE_FINGERPRINT>
10967382 1 18194682802610725025
11206711 2 18267583503234997525
12423570 1 17702939386999690093
13140716 1 18410855507372809002
16945 1 18122344571072465670
193761 8 18410856563934789351
20588541 1 18122904222554469582
21040471 1 18410856516864345824
21501502 16 18410856559645096807
2334 1 18410575058893275142
23526114 1 18410573985162000751
23552423 10 18343018904298985558
23559900 14 18190173672157890678
241688 4 18410574023806189627
2748010 2 18410573989446425030
528886 8 18338240491009676659
66348 1 18410575110432908672

> <PUBCHEM_SHAPE_MULTIPOLES>
256.3
3.67
3.51
0.63
0
0.43
0
-0.11
0
0
0
0
0.01
0

> <PUBCHEM_SHAPE_SELFOVERLAP>
492.142

> <PUBCHEM_SHAPE_VOLUME>
153.8

> <PUBCHEM_COORDINATE_TYPE>
2
5
10

$$$$

