11728
  -OEChem-06261206022D

 23 21  0     0  0  0  0  0  0999 V2000
    3.1350    1.6200    0.0000 S   0  5  0  0  0  0  0  0  0  0  0  0
    2.2690    3.1200    0.0000 S   0  0  0  0  0  0  0  0  0  0  0  0
    1.5675    6.1569    0.0000 N   0  3  0  0  0  0  0  0  0  0  0  0
    1.4030    1.6200    0.0000 N   0  0  0  0  0  0  0  0  0  0  0  0
    2.4335    6.6569    0.0000 C   0  0  0  0  0  0  0  0  0  0  0  0
    0.7015    5.6569    0.0000 C   0  0  0  0  0  0  0  0  0  0  0  0
    0.5369    2.1200    0.0000 C   0  0  0  0  0  0  0  0  0  0  0  0
    1.4030    0.6200    0.0000 C   0  0  0  0  0  0  0  0  0  0  0  0
    2.2690    2.1200    0.0000 C   0  0  0  0  0  0  0  0  0  0  0  0
    1.2575    6.6939    0.0000 H   0  0  0  0  0  0  0  0  0  0  0  0
    1.8775    5.6200    0.0000 H   0  0  0  0  0  0  0  0  0  0  0  0
    0.3915    6.1939    0.0000 H   0  0  0  0  0  0  0  0  0  0  0  0
    0.1645    5.3469    0.0000 H   0  0  0  0  0  0  0  0  0  0  0  0
    1.0115    5.1200    0.0000 H   0  0  0  0  0  0  0  0  0  0  0  0
    2.7435    6.1200    0.0000 H   0  0  0  0  0  0  0  0  0  0  0  0
    2.9705    6.9669    0.0000 H   0  0  0  0  0  0  0  0  0  0  0  0
    2.1235    7.1939    0.0000 H   0  0  0  0  0  0  0  0  0  0  0  0
    0.8469    2.6569    0.0000 H   0  0  0  0  0  0  0  0  0  0  0  0
    0.0000    2.4300    0.0000 H   0  0  0  0  0  0  0  0  0  0  0  0
    0.2269    1.5831    0.0000 H   0  0  0  0  0  0  0  0  0  0  0  0
    0.7830    0.6200    0.0000 H   0  0  0  0  0  0  0  0  0  0  0  0
    1.4030    0.0000    0.0000 H   0  0  0  0  0  0  0  0  0  0  0  0
    2.0230    0.6200    0.0000 H   0  0  0  0  0  0  0  0  0  0  0  0
  1  9  1  0  0  0  0
  2  9  2  0  0  0  0
  3  5  1  0  0  0  0
  3  6  1  0  0  0  0
  3 10  1  0  0  0  0
  3 11  1  0  0  0  0
  4  7  1  0  0  0  0
  4  8  1  0  0  0  0
  4  9  1  0  0  0  0
  5 15  1  0  0  0  0
  5 16  1  0  0  0  0
  5 17  1  0  0  0  0
  6 12  1  0  0  0  0
  6 13  1  0  0  0  0
  6 14  1  0  0  0  0
  7 18  1  0  0  0  0
  7 19  1  0  0  0  0
  7 20  1  0  0  0  0
  8 21  1  0  0  0  0
  8 22  1  0  0  0  0
  8 23  1  0  0  0  0
M  CHG  2   1  -1   3   1
M  END
> <PUBCHEM_COMPOUND_CID>
11728

> <PUBCHEM_COMPOUND_CANONICALIZED>
1

> <PUBCHEM_CACTVS_COMPLEXITY>
57.1

> <PUBCHEM_CACTVS_HBOND_ACCEPTOR>
2

> <PUBCHEM_CACTVS_HBOND_DONOR>
1

> <PUBCHEM_CACTVS_ROTATABLE_BOND>
0

> <PUBCHEM_CACTVS_SUBSKEYS>
AAADccBjAABgAAAAAAAAAAAAAAAAAAAAAAAAAAAAAAAAAAAAAAAAFAQQAAAAAAAAAAQCAAPAAAAEAAAAAAAAAAAAAAgAAIAIAAAAAAAAAAAAAAAAAAAAAAAAAAAAAAAAAAAAAAAAAAAAAAAAAAAAAAAAAA==

> <PUBCHEM_IUPAC_OPENEYE_NAME>
dimethylammonium; N,N-dimethylcarbamodithioate

> <PUBCHEM_IUPAC_CAS_NAME>
dimethylammonium; N,N-dimethylcarbamodithioate

> <PUBCHEM_IUPAC_NAME>
dimethylazanium; N,N-dimethylcarbamodithioate

> <PUBCHEM_IUPAC_SYSTEMATIC_NAME>
dimethylazanium; N,N-dimethylcarbamodithioate

> <PUBCHEM_IUPAC_TRADITIONAL_NAME>
dimethylammonium; N,N-dimethylcarbamodithioate

> <PUBCHEM_IUPAC_INCHI>
InChI=1S/C3H7NS2.C2H7N/c1-4(2)3(5)6;1-3-2/h1-2H3,(H,5,6);3H,1-2H3

> <PUBCHEM_IUPAC_INCHIKEY>
UVOFGKIRTCCNKG-UHFFFAOYSA-N

> <PUBCHEM_EXACT_MASS>
166.05984

> <PUBCHEM_MOLECULAR_FORMULA>
C5H14N2S2

> <PUBCHEM_MOLECULAR_WEIGHT>
166.30806

> <PUBCHEM_OPENEYE_CAN_SMILES>
C[NH2+]C.CN(C)C(=S)[S-]

> <PUBCHEM_OPENEYE_ISO_SMILES>
C[NH2+]C.CN(C)C(=S)[S-]

> <PUBCHEM_CACTVS_TPSA>
52.9

> <PUBCHEM_MONOISOTOPIC_WEIGHT>
166.05984

> <PUBCHEM_TOTAL_CHARGE>
0

> <PUBCHEM_HEAVY_ATOM_COUNT>
9

> <PUBCHEM_ATOM_DEF_STEREO_COUNT>
0

> <PUBCHEM_ATOM_UDEF_STEREO_COUNT>
0

> <PUBCHEM_BOND_DEF_STEREO_COUNT>
0

> <PUBCHEM_BOND_UDEF_STEREO_COUNT>
0

> <PUBCHEM_ISOTOPIC_ATOM_COUNT>
0

> <PUBCHEM_COMPONENT_COUNT>
2

> <PUBCHEM_CACTVS_TAUTO_COUNT>
1

> <PUBCHEM_COORDINATE_TYPE>
1
5
255

$$$$

