17395562
  -OEChem-06241222513D

 38 39  0     0  0  0  0  0  0999 V2000
   -6.4094    0.9141    1.4829 F   0  0  0  0  0  0  0  0  0  0  0  0
   -0.7531   -0.8408   -1.3963 O   0  0  0  0  0  0  0  0  0  0  0  0
    1.5803   -1.0539    0.0638 N   0  0  0  0  0  0  0  0  0  0  0  0
    4.3203   -0.1330    0.1184 N   0  0  0  0  0  0  0  0  0  0  0  0
   -1.9446   -0.5788    0.6165 N   0  0  0  0  0  0  0  0  0  0  0  0
    1.9032    0.3669    0.2430 C   0  0  0  0  0  0  0  0  0  0  0  0
    2.6566   -1.8954    0.6009 C   0  0  0  0  0  0  0  0  0  0  0  0
    3.2435    0.7093   -0.4167 C   0  0  0  0  0  0  0  0  0  0  0  0
    3.9967   -1.5539   -0.0598 C   0  0  0  0  0  0  0  0  0  0  0  0
    0.3029   -1.3795    0.6949 C   0  0  0  0  0  0  0  0  0  0  0  0
    5.5970    0.1920   -0.5145 C   0  0  0  0  0  0  0  0  0  0  0  0
   -0.8423   -0.8910   -0.1739 C   0  0  0  0  0  0  0  0  0  0  0  0
    6.1543    1.4311    0.0365 C   0  0  0  0  0  0  0  0  0  0  0  0
   -3.1752   -0.1001    0.1596 C   0  0  0  0  0  0  0  0  0  0  0  0
   -4.1981    0.1732    1.0677 C   0  0  0  0  0  0  0  0  0  0  0  0
   -3.3805    0.1048   -1.2047 C   0  0  0  0  0  0  0  0  0  0  0  0
    6.6155    2.4452    0.4845 C   0  0  0  0  0  0  0  0  0  0  0  0
   -5.4266    0.6512    0.6113 C   0  0  0  0  0  0  0  0  0  0  0  0
   -4.6087    0.5827   -1.6611 C   0  0  0  0  0  0  0  0  0  0  0  0
   -5.6318    0.8560   -0.7531 C   0  0  0  0  0  0  0  0  0  0  0  0
    1.1309    0.9959   -0.2156 H   0  0  0  0  0  0  0  0  0  0  0  0
    1.9438    0.6289    1.3092 H   0  0  0  0  0  0  0  0  0  0  0  0
    2.7389   -1.7769    1.6899 H   0  0  0  0  0  0  0  0  0  0  0  0
    2.4377   -2.9517    0.4024 H   0  0  0  0  0  0  0  0  0  0  0  0
    3.4509    1.7684   -0.2228 H   0  0  0  0  0  0  0  0  0  0  0  0
    3.1549    0.5892   -1.5052 H   0  0  0  0  0  0  0  0  0  0  0  0
    3.9619   -1.8159   -1.1260 H   0  0  0  0  0  0  0  0  0  0  0  0
    4.7729   -2.1745    0.4044 H   0  0  0  0  0  0  0  0  0  0  0  0
    0.2431   -0.9809    1.7149 H   0  0  0  0  0  0  0  0  0  0  0  0
    0.1710   -2.4675    0.7611 H   0  0  0  0  0  0  0  0  0  0  0  0
    5.5072    0.2533   -1.6063 H   0  0  0  0  0  0  0  0  0  0  0  0
    6.3270   -0.6021   -0.3093 H   0  0  0  0  0  0  0  0  0  0  0  0
   -1.8666   -0.7038    1.6231 H   0  0  0  0  0  0  0  0  0  0  0  0
   -4.0522    0.0184    2.1337 H   0  0  0  0  0  0  0  0  0  0  0  0
   -2.6482   -0.0750   -1.9774 H   0  0  0  0  0  0  0  0  0  0  0  0
    7.0241    3.3447    0.8821 H   0  0  0  0  0  0  0  0  0  0  0  0
   -4.7701    0.7437   -2.7232 H   0  0  0  0  0  0  0  0  0  0  0  0
   -6.5882    1.2285   -1.1082 H   0  0  0  0  0  0  0  0  0  0  0  0
  1 18  1  0  0  0  0
  2 12  2  0  0  0  0
  3  6  1  0  0  0  0
  3  7  1  0  0  0  0
  3 10  1  0  0  0  0
  4  8  1  0  0  0  0
  4  9  1  0  0  0  0
  4 11  1  0  0  0  0
  5 12  1  0  0  0  0
  5 14  1  0  0  0  0
  5 33  1  0  0  0  0
  6  8  1  0  0  0  0
  6 21  1  0  0  0  0
  6 22  1  0  0  0  0
  7  9  1  0  0  0  0
  7 23  1  0  0  0  0
  7 24  1  0  0  0  0
  8 25  1  0  0  0  0
  8 26  1  0  0  0  0
  9 27  1  0  0  0  0
  9 28  1  0  0  0  0
 10 12  1  0  0  0  0
 10 29  1  0  0  0  0
 10 30  1  0  0  0  0
 11 13  1  0  0  0  0
 11 31  1  0  0  0  0
 11 32  1  0  0  0  0
 13 17  3  0  0  0  0
 14 15  2  0  0  0  0
 14 16  1  0  0  0  0
 15 18  1  0  0  0  0
 15 34  1  0  0  0  0
 16 19  2  0  0  0  0
 16 35  1  0  0  0  0
 17 36  1  0  0  0  0
 18 20  2  0  0  0  0
 19 20  1  0  0  0  0
 19 37  1  0  0  0  0
 20 38  1  0  0  0  0
M  END
> <PUBCHEM_COMPOUND_CID>
17395562

> <PUBCHEM_CONFORMER_RMSD>
0.8

> <PUBCHEM_CONFORMER_DIVERSEORDER>
3
133
45
147
127
107
5
161
168
113
25
157
142
11
102
116
64
149
29
106
39
121
65
34
46
151
62
94
154
93
82
130
66
111
35
63
97
163
144
27
139
14
50
67
143
16
108
136
104
31
148
124
22
43
153
1
20
12
165
164
56
26
57
146
118
81
70
76
33
160
126
55
72
51
152
129
84
32
95
75
21
61
135
132
53
150
122
49
145
88
58
13
101
60
137
80
30
17
96
68
78
128
44
156
167
90
69
52
85
83
79
100
162
59
36
24
141
123
38
48
140
47
23
120
138
2
159
109
40
77
131
114
158
87
54
125
110
42
91
41
73
134
18
7
105
28
92
74
19
15
166
8
99
103
4
10
71
155
37
115
9
119
112
86
117
89
98
6

> <PUBCHEM_MMFF94_PARTIAL_CHARGES>
26
1 -0.19
10 0.33
11 0.47
12 0.57
13 -0.2
14 0.12
15 -0.15
16 -0.15
17 -0.18
18 0.19
19 -0.15
2 -0.57
20 -0.15
3 -0.81
33 0.37
34 0.15
35 0.15
36 0.18
37 0.15
38 0.15
4 -0.81
5 -0.55
6 0.27
7 0.27
8 0.27
9 0.27

> <PUBCHEM_EFFECTIVE_ROTOR_COUNT>
6.2

> <PUBCHEM_PHARMACOPHORE_FEATURES>
7
1 17 hydrophobe
1 2 acceptor
1 3 cation
1 4 cation
1 5 donor
6 14 15 16 18 19 20 rings
6 3 4 6 7 8 9 rings

> <PUBCHEM_HEAVY_ATOM_COUNT>
20

> <PUBCHEM_ATOM_DEF_STEREO_COUNT>
0

> <PUBCHEM_ATOM_UDEF_STEREO_COUNT>
0

> <PUBCHEM_BOND_DEF_STEREO_COUNT>
0

> <PUBCHEM_BOND_UDEF_STEREO_COUNT>
0

> <PUBCHEM_ISOTOPIC_ATOM_COUNT>
0

> <PUBCHEM_COMPONENT_COUNT>
1

> <PUBCHEM_CACTVS_TAUTO_COUNT>
2

> <PUBCHEM_CONFORMER_ID>
01096F6A00000003

> <PUBCHEM_MMFF94_ENERGY>
45.9603

> <PUBCHEM_FEATURE_SELFOVERLAP>
35.522

> <PUBCHEM_SHAPE_FINGERPRINT>
10 15 17131832032637794188
11089746 13 17822015285639842160
11858739 19 7709455013525504418
12236239 1 18040435507537189191
12555020 224 7925907076336402493
12670543 26 14996278145422050462
12730499 353 18131345349842262018
13631057 29 18266746771214473111
13668630 136 8286198344886838997
13862211 1 10303816479817478984
13955234 65 18129667538248708210
14123256 34 8286208279335923348
14251752 14 15574709227031476196
14341114 176 17917424371535962919
14528608 73 17531252738187617008
15048467 5 18408885122918105232
15081414 286 18343017809509840292
15183329 4 15791725317436622808
15475509 35 15697452151848783442
15575132 122 17968658328115409313
15716309 27 11815900058664434589
16079462 125 17918001580728014228
1768 4 18339353063812952392
17834072 8 13767927940163791271
17870717 6 14129060309793327637
18222031 100 7997974566252949062
20281389 69 18202285805542671840
20526848 3 18334008372381991488
20645477 56 17917996074912431855
21033648 29 17775573074039390357
21150785 3 17895200965284973863
21637258 2 10735882750864080588
220451 1 15936406754090681823
22224240 67 17847059969934355955
23081809 10 17604155912433678031
23198884 109 17458341931394800693
23402539 116 16443068317639464601
23402655 69 18260552208180292830
23559900 14 16270801337063131539
25122255 55 7781514862558763868
2767999 5 18411424986214862816
2838139 119 18334580139903316788
2916195 48 18059860549563678682
293599 30 18341612594999844838
29717793 49 17385436653374744870
300161 21 18341618105084299898
3004659 81 4895270404386358986
3545911 37 18202278117255864914
4340502 62 16774080683096981490
5104073 3 17846780727860617722
5364581 5 17273402877360256125
542803 24 17968098650736695579
543368 44 18333452023856373593
5718773 13 7925093425438082588

> <PUBCHEM_SHAPE_MULTIPOLES>
383.5
17.67
1.73
1.18
3.03
0.06
-0.14
11.27
1.76
3.07
0.26
-1.81
0.16
0.42

> <PUBCHEM_SHAPE_SELFOVERLAP>
791.344

> <PUBCHEM_SHAPE_VOLUME>
219

> <PUBCHEM_COORDINATE_TYPE>
2
5
10

$$$$

