47205215
  -OEChem-06241222583D

 36 38  0     0  0  0  0  0  0999 V2000
    1.6657   -1.9236   -1.1342 O   0  0  0  0  0  0  0  0  0  0  0  0
   -4.2281   -0.6932    0.8326 N   0  0  0  0  0  0  0  0  0  0  0  0
    1.7039    0.3877   -0.9523 N   0  0  0  0  0  0  0  0  0  0  0  0
    4.2297    1.4928    0.6028 N   0  0  0  0  0  0  0  0  0  0  0  0
    5.1621    1.2346    1.5358 N   0  0  0  0  0  0  0  0  0  0  0  0
   -2.4448    0.2114   -0.1567 C   0  0  0  0  0  0  0  0  0  0  0  0
   -3.5259    1.1349   -0.2126 C   0  0  0  0  0  0  0  0  0  0  0  0
   -2.9118   -0.9269    0.5039 C   0  0  0  0  0  0  0  0  0  0  0  0
   -4.6082    0.5503    0.4038 C   0  0  0  0  0  0  0  0  0  0  0  0
   -1.1096    0.2347   -0.6062 C   0  0  0  0  0  0  0  0  0  0  0  0
   -0.2930   -0.8791   -0.3787 C   0  0  0  0  0  0  0  0  0  0  0  0
   -2.1071   -2.0476    0.7384 C   0  0  0  0  0  0  0  0  0  0  0  0
   -0.7863   -2.0016    0.2835 C   0  0  0  0  0  0  0  0  0  0  0  0
   -3.4946    2.4809   -0.8221 C   0  0  0  0  0  0  0  0  0  0  0  0
   -5.9778    1.0489    0.6339 C   0  0  0  0  0  0  0  0  0  0  0  0
    1.0868   -0.8632   -0.8395 C   0  0  0  0  0  0  0  0  0  0  0  0
    3.0602    0.5702   -1.4173 C   0  0  0  0  0  0  0  0  0  0  0  0
    4.0552    0.4822   -0.2964 C   0  0  0  0  0  0  0  0  0  0  0  0
    4.9347   -0.5057    0.0738 C   0  0  0  0  0  0  0  0  0  0  0  0
    5.5890    0.0123    1.2075 C   0  0  0  0  0  0  0  0  0  0  0  0
   -4.8234   -1.3483    1.3208 H   0  0  0  0  0  0  0  0  0  0  0  0
   -0.7617    1.1092   -1.1466 H   0  0  0  0  0  0  0  0  0  0  0  0
   -2.4901   -2.9214    1.2548 H   0  0  0  0  0  0  0  0  0  0  0  0
   -0.1496   -2.8650    0.4644 H   0  0  0  0  0  0  0  0  0  0  0  0
   -2.5578    2.9959   -0.5851 H   0  0  0  0  0  0  0  0  0  0  0  0
   -4.3136    3.1113   -0.4614 H   0  0  0  0  0  0  0  0  0  0  0  0
   -3.5783    2.4062   -1.9111 H   0  0  0  0  0  0  0  0  0  0  0  0
   -5.9674    1.8749    1.3523 H   0  0  0  0  0  0  0  0  0  0  0  0
   -6.6362    0.2680    1.0286 H   0  0  0  0  0  0  0  0  0  0  0  0
   -6.4175    1.4129   -0.3003 H   0  0  0  0  0  0  0  0  0  0  0  0
    3.2840   -0.1874   -2.1765 H   0  0  0  0  0  0  0  0  0  0  0  0
    3.1152    1.5541   -1.8953 H   0  0  0  0  0  0  0  0  0  0  0  0
    1.2215    1.2225   -0.6363 H   0  0  0  0  0  0  0  0  0  0  0  0
    5.0809   -1.4626   -0.4056 H   0  0  0  0  0  0  0  0  0  0  0  0
    3.7484    2.3828    0.6407 H   0  0  0  0  0  0  0  0  0  0  0  0
    6.3590   -0.4502    1.8081 H   0  0  0  0  0  0  0  0  0  0  0  0
  1 16  2  0  0  0  0
  2  8  1  0  0  0  0
  2  9  1  0  0  0  0
  2 21  1  0  0  0  0
  3 16  1  0  0  0  0
  3 17  1  0  0  0  0
  3 33  1  0  0  0  0
  4  5  1  0  0  0  0
  4 18  1  0  0  0  0
  4 35  1  0  0  0  0
  5 20  2  0  0  0  0
  6  7  1  0  0  0  0
  6  8  2  0  0  0  0
  6 10  1  0  0  0  0
  7  9  2  0  0  0  0
  7 14  1  0  0  0  0
  8 12  1  0  0  0  0
  9 15  1  0  0  0  0
 10 11  2  0  0  0  0
 10 22  1  0  0  0  0
 11 13  1  0  0  0  0
 11 16  1  0  0  0  0
 12 13  2  0  0  0  0
 12 23  1  0  0  0  0
 13 24  1  0  0  0  0
 14 25  1  0  0  0  0
 14 26  1  0  0  0  0
 14 27  1  0  0  0  0
 15 28  1  0  0  0  0
 15 29  1  0  0  0  0
 15 30  1  0  0  0  0
 17 18  1  0  0  0  0
 17 31  1  0  0  0  0
 17 32  1  0  0  0  0
 18 19  2  0  0  0  0
 19 20  1  0  0  0  0
 19 34  1  0  0  0  0
 20 36  1  0  0  0  0
M  END
> <PUBCHEM_COMPOUND_CID>
47205215

> <PUBCHEM_CONFORMER_RMSD>
0.6

> <PUBCHEM_CONFORMER_DIVERSEORDER>
11
38
12
42
70
48
67
52
20
55
31
41
3
69
10
45
36
1
44
32
23
27
68
17
46
53
63
34
30
50
5
21
62
60
19
57
25
54
51
40
71
43
49
37
26
15
24
22
64
13
9
61
56
47
33
6
59
28
35
29
65
2
16
66
4
8
18
7
14
39
58

> <PUBCHEM_MMFF94_PARTIAL_CHARGES>
27
1 -0.57
10 -0.15
11 0.09
12 -0.15
13 -0.15
14 0.18
15 0.18
16 0.54
17 0.48
18 -0.33
19 -0.15
2 0.03
20 0.14
21 0.27
22 0.15
23 0.15
24 0.15
3 -0.73
33 0.37
34 0.15
35 0.27
36 0.15
4 0.3
5 -0.71
7 -0.18
8 -0.15
9 -0.33

> <PUBCHEM_EFFECTIVE_ROTOR_COUNT>
4

> <PUBCHEM_PHARMACOPHORE_FEATURES>
9
1 1 acceptor
1 2 cation
1 2 donor
1 3 donor
1 4 donor
1 5 acceptor
5 2 6 7 8 9 rings
5 4 5 18 19 20 rings
6 6 8 10 11 12 13 rings

> <PUBCHEM_HEAVY_ATOM_COUNT>
20

> <PUBCHEM_ATOM_DEF_STEREO_COUNT>
0

> <PUBCHEM_ATOM_UDEF_STEREO_COUNT>
0

> <PUBCHEM_BOND_DEF_STEREO_COUNT>
0

> <PUBCHEM_BOND_UDEF_STEREO_COUNT>
0

> <PUBCHEM_ISOTOPIC_ATOM_COUNT>
0

> <PUBCHEM_COMPONENT_COUNT>
1

> <PUBCHEM_CACTVS_TAUTO_COUNT>
10

> <PUBCHEM_CONFORMER_ID>
02D04B5F0000000B

> <PUBCHEM_MMFF94_ENERGY>
30.1019

> <PUBCHEM_FEATURE_SELFOVERLAP>
45.761

> <PUBCHEM_SHAPE_MULTIPOLES>
385.8
13.2
2
1.19
6.78
0.14
-0.04
-5.62
-5.35
-1.39
0.06
1.18
-0.12
0.98

> <PUBCHEM_SHAPE_SELFOVERLAP>
843.667

> <PUBCHEM_SHAPE_VOLUME>
211.5

> <PUBCHEM_COORDINATE_TYPE>
2
5
10

$$$$

