5855
  -OEChem-06261200563D

 55 58  0     1  0  0  0  0  0999 V2000
    5.1938   -1.1704   -0.3004 O   0  0  0  0  0  0  0  0  0  0  0  0
   -4.8283   -0.6589   -1.2359 O   0  0  0  0  0  0  0  0  0  0  0  0
   -0.1778   -0.3117   -0.0272 C   0  0  1  0  0  0  0  0  0  0  0  0
    0.7105    0.9679   -0.1961 C   0  0  2  0  0  0  0  0  0  0  0  0
   -1.6165   -0.0504   -0.5480 C   0  0  2  0  0  0  0  0  0  0  0  0
    2.0936    0.6676    0.3961 C   0  0  1  0  0  0  0  0  0  0  0  0
    2.7957   -0.5306   -0.2850 C   0  0  2  0  0  0  0  0  0  0  0  0
   -2.1780    1.1366    0.2630 C   0  0  1  0  0  0  0  0  0  0  0  0
    0.4896   -1.5786   -0.6064 C   0  0  0  0  0  0  0  0  0  0  0  0
    1.9217   -1.7825   -0.0755 C   0  0  0  0  0  0  0  0  0  0  0  0
    4.1764   -0.5010    0.4413 C   0  0  2  0  0  0  0  0  0  0  0  0
    0.0607    2.2127    0.4499 C   0  0  0  0  0  0  0  0  0  0  0  0
    3.1520    1.7642    0.3702 C   0  0  0  0  0  0  0  0  0  0  0  0
   -2.6570   -1.1330   -0.1855 C   0  0  0  0  0  0  0  0  0  0  0  0
   -1.4032    2.4231    0.0324 C   0  0  0  0  0  0  0  0  0  0  0  0
    4.4863    1.0170    0.5530 C   0  0  0  0  0  0  0  0  0  0  0  0
   -3.6688    1.1298   -0.0496 C   0  0  0  0  0  0  0  0  0  0  0  0
   -4.0139   -0.3780   -0.1062 C   0  0  1  0  0  0  0  0  0  0  0  0
   -1.6253    0.1746   -2.0822 C   0  0  0  0  0  0  0  0  0  0  0  0
    3.0051   -0.3302   -1.8155 C   0  0  0  0  0  0  0  0  0  0  0  0
    4.1964   -1.1515    1.8306 C   0  0  0  0  0  0  0  0  0  0  0  0
   -4.7544   -0.7902    1.0978 C   0  0  0  0  0  0  0  0  0  0  0  0
   -5.3586   -1.1263    2.0791 C   0  0  0  0  0  0  0  0  0  0  0  0
   -0.2572   -0.4946    1.0564 H   0  0  0  0  0  0  0  0  0  0  0  0
    0.8317    1.1984   -1.2586 H   0  0  0  0  0  0  0  0  0  0  0  0
    1.9250    0.4264    1.4565 H   0  0  0  0  0  0  0  0  0  0  0  0
   -2.0892    0.9057    1.3375 H   0  0  0  0  0  0  0  0  0  0  0  0
    0.5085   -1.5430   -1.6996 H   0  0  0  0  0  0  0  0  0  0  0  0
   -0.1065   -2.4602   -0.3416 H   0  0  0  0  0  0  0  0  0  0  0  0
    1.8442   -2.0253    0.9908 H   0  0  0  0  0  0  0  0  0  0  0  0
    2.3748   -2.6544   -0.5619 H   0  0  0  0  0  0  0  0  0  0  0  0
    0.6350    3.1104    0.1926 H   0  0  0  0  0  0  0  0  0  0  0  0
    0.1030    2.1171    1.5428 H   0  0  0  0  0  0  0  0  0  0  0  0
    2.9975    2.4994    1.1667 H   0  0  0  0  0  0  0  0  0  0  0  0
    3.1465    2.3056   -0.5825 H   0  0  0  0  0  0  0  0  0  0  0  0
   -2.3967   -1.5784    0.7841 H   0  0  0  0  0  0  0  0  0  0  0  0
   -2.6785   -1.9441   -0.9224 H   0  0  0  0  0  0  0  0  0  0  0  0
   -1.8373    3.2364    0.6253 H   0  0  0  0  0  0  0  0  0  0  0  0
   -1.4543    2.7351   -1.0164 H   0  0  0  0  0  0  0  0  0  0  0  0
    5.2036    1.3368   -0.2121 H   0  0  0  0  0  0  0  0  0  0  0  0
    4.9317    1.2677    1.5227 H   0  0  0  0  0  0  0  0  0  0  0  0
   -4.2301    1.6722    0.7203 H   0  0  0  0  0  0  0  0  0  0  0  0
   -3.8794    1.6271   -1.0035 H   0  0  0  0  0  0  0  0  0  0  0  0
   -1.4052   -0.7569   -2.6148 H   0  0  0  0  0  0  0  0  0  0  0  0
   -2.5887    0.5283   -2.4558 H   0  0  0  0  0  0  0  0  0  0  0  0
   -0.8920    0.9160   -2.4078 H   0  0  0  0  0  0  0  0  0  0  0  0
    2.0738   -0.1601   -2.3609 H   0  0  0  0  0  0  0  0  0  0  0  0
    3.6602    0.5180   -2.0385 H   0  0  0  0  0  0  0  0  0  0  0  0
    3.4705   -1.2190   -2.2577 H   0  0  0  0  0  0  0  0  0  0  0  0
    5.1885   -1.0444    2.2862 H   0  0  0  0  0  0  0  0  0  0  0  0
    3.4660   -0.7160    2.5178 H   0  0  0  0  0  0  0  0  0  0  0  0
    4.0160   -2.2303    1.7659 H   0  0  0  0  0  0  0  0  0  0  0  0
    4.9135   -2.0935   -0.4229 H   0  0  0  0  0  0  0  0  0  0  0  0
   -4.3078   -0.5151   -2.0420 H   0  0  0  0  0  0  0  0  0  0  0  0
   -5.8944   -1.4244    2.9498 H   0  0  0  0  0  0  0  0  0  0  0  0
  1 11  1  0  0  0  0
  1 53  1  0  0  0  0
  2 18  1  0  0  0  0
  2 54  1  0  0  0  0
  3  4  1  0  0  0  0
  3  5  1  0  0  0  0
  3  9  1  0  0  0  0
  3 24  1  0  0  0  0
  4  6  1  0  0  0  0
  4 12  1  0  0  0  0
  4 25  1  0  0  0  0
  5  8  1  0  0  0  0
  5 14  1  0  0  0  0
  5 19  1  0  0  0  0
  6  7  1  0  0  0  0
  6 13  1  0  0  0  0
  6 26  1  0  0  0  0
  7 10  1  0  0  0  0
  7 11  1  0  0  0  0
  7 20  1  0  0  0  0
  8 15  1  0  0  0  0
  8 17  1  0  0  0  0
  8 27  1  0  0  0  0
  9 10  1  0  0  0  0
  9 28  1  0  0  0  0
  9 29  1  0  0  0  0
 10 30  1  0  0  0  0
 10 31  1  0  0  0  0
 11 16  1  0  0  0  0
 11 21  1  0  0  0  0
 12 15  1  0  0  0  0
 12 32  1  0  0  0  0
 12 33  1  0  0  0  0
 13 16  1  0  0  0  0
 13 34  1  0  0  0  0
 13 35  1  0  0  0  0
 14 18  1  0  0  0  0
 14 36  1  0  0  0  0
 14 37  1  0  0  0  0
 15 38  1  0  0  0  0
 15 39  1  0  0  0  0
 16 40  1  0  0  0  0
 16 41  1  0  0  0  0
 17 18  1  0  0  0  0
 17 42  1  0  0  0  0
 17 43  1  0  0  0  0
 18 22  1  0  0  0  0
 19 44  1  0  0  0  0
 19 45  1  0  0  0  0
 19 46  1  0  0  0  0
 20 47  1  0  0  0  0
 20 48  1  0  0  0  0
 20 49  1  0  0  0  0
 21 50  1  0  0  0  0
 21 51  1  0  0  0  0
 21 52  1  0  0  0  0
 22 23  3  0  0  0  0
 23 55  1  0  0  0  0
M  END
> <PUBCHEM_COMPOUND_CID>
5855

> <PUBCHEM_CONFORMER_RMSD>
0.6

> <PUBCHEM_CONFORMER_DIVERSEORDER>
1

> <PUBCHEM_MMFF94_PARTIAL_CHARGES>
9
1 -0.68
11 0.28
18 0.48
2 -0.68
22 -0.2
23 -0.18
53 0.4
54 0.4
55 0.18

> <PUBCHEM_EFFECTIVE_ROTOR_COUNT>
2

> <PUBCHEM_PHARMACOPHORE_FEATURES>
9
1 1 acceptor
1 1 donor
1 2 acceptor
1 2 donor
1 23 hydrophobe
5 5 8 14 17 18 rings
5 6 7 11 13 16 rings
6 3 4 5 8 12 15 rings
6 3 4 6 7 9 10 rings

> <PUBCHEM_HEAVY_ATOM_COUNT>
23

> <PUBCHEM_ATOM_DEF_STEREO_COUNT>
8

> <PUBCHEM_ATOM_UDEF_STEREO_COUNT>
0

> <PUBCHEM_BOND_DEF_STEREO_COUNT>
0

> <PUBCHEM_BOND_UDEF_STEREO_COUNT>
0

> <PUBCHEM_ISOTOPIC_ATOM_COUNT>
0

> <PUBCHEM_COMPONENT_COUNT>
1

> <PUBCHEM_CACTVS_TAUTO_COUNT>
1

> <PUBCHEM_CONFORMER_ID>
000016DF00000001

> <PUBCHEM_MMFF94_ENERGY>
96.7453

> <PUBCHEM_FEATURE_SELFOVERLAP>
45.803

> <PUBCHEM_SHAPE_FINGERPRINT>
10366900 7 18201716275794305402
11132069 177 17967258606351218439
11552529 35 16081945741210792183
11578080 2 17128463334736111902
11796584 16 17131845295217223435
12236239 1 17917708041836943974
12403814 3 17822300084636344941
12553582 1 18335976511043318879
12596602 18 17846227674255651280
12633257 1 18335133155723905131
128620 24 18131911563579853229
13103583 49 18266435686758766947
13140716 1 18191023400401766651
13224815 77 18334866034089839900
13544653 18 18343300345337769125
13583140 156 17774463623477385702
13675066 3 17821736052219166048
13862211 1 18408330981468107751
14178342 30 18045504376869936584
14223421 5 18264770037420298213
14252887 29 17895187826953699846
14341114 176 18412259528277287442
14341114 328 17967248663686609363
14787075 74 18188213095841278969
14790565 3 17761491387804484528
15196674 1 18335143102451372648
15209294 21 16877932854927983795
15788980 27 18410014346681209583
16945 1 18263080092575644724
17349148 13 18060697312177390970
17492 89 18269839881605581314
1813 80 17917982872098522893
18785283 64 18054499215056182205
19141452 34 17603867780352520135
19862831 5 11815895669239402605
200 152 18131073748720473367
20028762 73 18114744807449103615
20261772 1 18113904848846154118
20739085 24 18336250271895314697
21267235 1 18408315596926733054
22182313 1 17896596382721339757
23184049 59 18040710347132176013
23402539 116 18260841405106937487
23557571 272 18040432239330840676
23559900 14 18044094789999052502
26918003 58 18202565086102168291
2838139 119 4677990319959318675
2871803 45 18411707598904031476
296302 2 6771860788091768316
312423 11 18342164596870911380
3286 77 18130791170032288700
3472631 163 13840259312955901195
350125 39 18335139804533856304
392239 28 18411133606806340819
4340502 62 17417816093907300072
465052 167 18343298176342790338
5104073 3 18410577322505065088
7064713 232 16877944919042855159
7495541 125 17632008654883133061
8272917 22 4750889099931180172
9709674 26 18335136531103885278

> <PUBCHEM_SHAPE_MULTIPOLES>
461.59
10.72
2
1.48
2.74
0.76
0.08
-3.62
-3.54
-0.25
-0.35
0.56
-0.45
0.56

> <PUBCHEM_SHAPE_SELFOVERLAP>
986.73

> <PUBCHEM_SHAPE_VOLUME>
257.4

> <PUBCHEM_COORDINATE_TYPE>
2
5
10

$$$$

