12582
  -OEChem-06261207072D

 23 22  0     0  0  0  0  0  0999 V2000
    7.1962    0.1900    0.0000 O   0  0  0  0  0  0  0  0  0  0  0  0
    3.7320    0.1900    0.0000 C   0  0  0  0  0  0  0  0  0  0  0  0
    2.8660    0.6900    0.0000 C   0  0  0  0  0  0  0  0  0  0  0  0
    4.5981    0.6900    0.0000 C   0  0  0  0  0  0  0  0  0  0  0  0
    5.4641    0.1900    0.0000 C   0  0  0  0  0  0  0  0  0  0  0  0
    5.4641   -0.8100    0.0000 C   0  0  0  0  0  0  0  0  0  0  0  0
    2.0000    0.1900    0.0000 C   0  0  0  0  0  0  0  0  0  0  0  0
    4.5981   -1.3100    0.0000 C   0  0  0  0  0  0  0  0  0  0  0  0
    6.3301    0.6900    0.0000 C   0  0  0  0  0  0  0  0  0  0  0  0
    3.3335   -0.2849    0.0000 H   0  0  0  0  0  0  0  0  0  0  0  0
    4.1306   -0.2849    0.0000 H   0  0  0  0  0  0  0  0  0  0  0  0
    3.2646    1.1650    0.0000 H   0  0  0  0  0  0  0  0  0  0  0  0
    2.4675    1.1650    0.0000 H   0  0  0  0  0  0  0  0  0  0  0  0
    4.5981    1.3100    0.0000 H   0  0  0  0  0  0  0  0  0  0  0  0
    5.6762   -1.3926    0.0000 H   0  0  0  0  0  0  0  0  0  0  0  0
    6.0747   -0.7023    0.0000 H   0  0  0  0  0  0  0  0  0  0  0  0
    1.6900    0.7269    0.0000 H   0  0  0  0  0  0  0  0  0  0  0  0
    1.4631   -0.1200    0.0000 H   0  0  0  0  0  0  0  0  0  0  0  0
    2.3100   -0.3469    0.0000 H   0  0  0  0  0  0  0  0  0  0  0  0
    4.2881   -0.7731    0.0000 H   0  0  0  0  0  0  0  0  0  0  0  0
    4.0611   -1.6200    0.0000 H   0  0  0  0  0  0  0  0  0  0  0  0
    4.9081   -1.8469    0.0000 H   0  0  0  0  0  0  0  0  0  0  0  0
    6.3301    1.3100    0.0000 H   0  0  0  0  0  0  0  0  0  0  0  0
  1  9  2  0  0  0  0
  2  3  1  0  0  0  0
  2  4  1  0  0  0  0
  2 10  1  0  0  0  0
  2 11  1  0  0  0  0
  3  7  1  0  0  0  0
  3 12  1  0  0  0  0
  3 13  1  0  0  0  0
  4  5  2  3  0  0  0
  4 14  1  0  0  0  0
  5  6  1  0  0  0  0
  5  9  1  0  0  0  0
  6  8  1  0  0  0  0
  6 15  1  0  0  0  0
  6 16  1  0  0  0  0
  7 17  1  0  0  0  0
  7 18  1  0  0  0  0
  7 19  1  0  0  0  0
  8 20  1  0  0  0  0
  8 21  1  0  0  0  0
  8 22  1  0  0  0  0
  9 23  1  0  0  0  0
M  END
> <PUBCHEM_COMPOUND_CID>
12582

> <PUBCHEM_COMPOUND_CANONICALIZED>
1

> <PUBCHEM_CACTVS_COMPLEXITY>
103

> <PUBCHEM_CACTVS_HBOND_ACCEPTOR>
1

> <PUBCHEM_CACTVS_HBOND_DONOR>
0

> <PUBCHEM_CACTVS_ROTATABLE_BOND>
4

> <PUBCHEM_CACTVS_SUBSKEYS>
AAADccBwIAAAAAAAAAAAAAAAAAAAAAAAAAAAAAAAAAAAAAAAAAAAGgAAAAAADACggAICAAAAAACIAihSgAAAAAAgAAAACAEAAEgAABAAAQAAAAAAgAAIAYIAAAAAAAAAAAAAAAAAAAAAAAAAAAAAAAAAAA==

> <PUBCHEM_IUPAC_OPENEYE_NAME>
2-ethylhex-2-enal

> <PUBCHEM_IUPAC_CAS_NAME>
2-ethyl-2-hexenal

> <PUBCHEM_IUPAC_NAME>
2-ethylhex-2-enal

> <PUBCHEM_IUPAC_SYSTEMATIC_NAME>
2-ethylhex-2-enal

> <PUBCHEM_IUPAC_TRADITIONAL_NAME>
2-ethylhex-2-enal

> <PUBCHEM_IUPAC_INCHI>
InChI=1S/C8H14O/c1-3-5-6-8(4-2)7-9/h6-7H,3-5H2,1-2H3

> <PUBCHEM_IUPAC_INCHIKEY>
PYLMCYQHBRSDND-UHFFFAOYSA-N

> <PUBCHEM_XLOGP3_AA>
2.3

> <PUBCHEM_EXACT_MASS>
126.104465

> <PUBCHEM_MOLECULAR_FORMULA>
C8H14O

> <PUBCHEM_MOLECULAR_WEIGHT>
126.19616

> <PUBCHEM_OPENEYE_CAN_SMILES>
CCCC=C(CC)C=O

> <PUBCHEM_OPENEYE_ISO_SMILES>
CCCC=C(CC)C=O

> <PUBCHEM_CACTVS_TPSA>
17.1

> <PUBCHEM_MONOISOTOPIC_WEIGHT>
126.104465

> <PUBCHEM_TOTAL_CHARGE>
0

> <PUBCHEM_HEAVY_ATOM_COUNT>
9

> <PUBCHEM_ATOM_DEF_STEREO_COUNT>
0

> <PUBCHEM_ATOM_UDEF_STEREO_COUNT>
0

> <PUBCHEM_BOND_DEF_STEREO_COUNT>
0

> <PUBCHEM_BOND_UDEF_STEREO_COUNT>
1

> <PUBCHEM_ISOTOPIC_ATOM_COUNT>
0

> <PUBCHEM_COMPONENT_COUNT>
1

> <PUBCHEM_CACTVS_TAUTO_COUNT>
1

> <PUBCHEM_COORDINATE_TYPE>
1
5
255

> <PUBCHEM_BONDANNOTATIONS>
4  5  1

$$$$

