17395466
  -OEChem-06241222502D

 50 52  0     0  0  0  0  0  0999 V2000
    5.4641    1.0000    0.0000 O   0  0  0  0  0  0  0  0  0  0  0  0
    6.3301    2.5000    0.0000 O   0  0  0  0  0  0  0  0  0  0  0  0
    3.7320   -2.0000    0.0000 N   0  0  0  0  0  0  0  0  0  0  0  0
    6.3301   -0.5000    0.0000 N   0  0  0  0  0  0  0  0  0  0  0  0
    5.4641   -1.0000    0.0000 C   0  0  0  0  0  0  0  0  0  0  0  0
    5.4641   -2.0000    0.0000 C   0  0  0  0  0  0  0  0  0  0  0  0
    4.5981   -0.5000    0.0000 C   0  0  0  0  0  0  0  0  0  0  0  0
    4.5981   -2.5000    0.0000 C   0  0  0  0  0  0  0  0  0  0  0  0
    3.7320   -1.0000    0.0000 C   0  0  0  0  0  0  0  0  0  0  0  0
    2.8660   -2.5000    0.0000 C   0  0  0  0  0  0  0  0  0  0  0  0
    2.8660   -3.5000    0.0000 C   0  0  0  0  0  0  0  0  0  0  0  0
    2.0000   -2.0000    0.0000 C   0  0  0  0  0  0  0  0  0  0  0  0
    6.3301    0.5000    0.0000 C   0  0  0  0  0  0  0  0  0  0  0  0
    7.1962    1.0000    0.0000 C   0  0  0  0  0  0  0  0  0  0  0  0
    7.1962    2.0000    0.0000 C   0  0  0  0  0  0  0  0  0  0  0  0
    8.0622    0.5000    0.0000 C   0  0  0  0  0  0  0  0  0  0  0  0
    8.9282    1.0000    0.0000 C   0  0  0  0  0  0  0  0  0  0  0  0
    8.9282    2.0000    0.0000 C   0  0  0  0  0  0  0  0  0  0  0  0
    8.0622    2.5000    0.0000 C   0  0  0  0  0  0  0  0  0  0  0  0
    9.8222    0.4653    0.0000 C   0  0  0  0  0  0  0  0  0  0  0  0
    9.8222    2.5347    0.0000 C   0  0  0  0  0  0  0  0  0  0  0  0
   10.7282    0.9792    0.0000 C   0  0  0  0  0  0  0  0  0  0  0  0
   10.7282    2.0208    0.0000 C   0  0  0  0  0  0  0  0  0  0  0  0
    6.3301    3.5000    0.0000 C   0  0  0  0  0  0  0  0  0  0  0  0
    5.4641   -0.3800    0.0000 H   0  0  0  0  0  0  0  0  0  0  0  0
    4.9966   -0.0251    0.0000 H   0  0  0  0  0  0  0  0  0  0  0  0
    4.1996   -0.0251    0.0000 H   0  0  0  0  0  0  0  0  0  0  0  0
    5.6762   -2.5826    0.0000 H   0  0  0  0  0  0  0  0  0  0  0  0
    6.0747   -1.8923    0.0000 H   0  0  0  0  0  0  0  0  0  0  0  0
    3.5200   -0.4174    0.0000 H   0  0  0  0  0  0  0  0  0  0  0  0
    3.1215   -1.1077    0.0000 H   0  0  0  0  0  0  0  0  0  0  0  0
    4.1996   -2.9750    0.0000 H   0  0  0  0  0  0  0  0  0  0  0  0
    4.9966   -2.9750    0.0000 H   0  0  0  0  0  0  0  0  0  0  0  0
    2.8660   -1.8800    0.0000 H   0  0  0  0  0  0  0  0  0  0  0  0
    6.8671   -0.8100    0.0000 H   0  0  0  0  0  0  0  0  0  0  0  0
    2.2460   -3.5000    0.0000 H   0  0  0  0  0  0  0  0  0  0  0  0
    2.8660   -4.1200    0.0000 H   0  0  0  0  0  0  0  0  0  0  0  0
    3.4860   -3.5000    0.0000 H   0  0  0  0  0  0  0  0  0  0  0  0
    2.3100   -1.4631    0.0000 H   0  0  0  0  0  0  0  0  0  0  0  0
    1.4631   -1.6900    0.0000 H   0  0  0  0  0  0  0  0  0  0  0  0
    1.6900   -2.5369    0.0000 H   0  0  0  0  0  0  0  0  0  0  0  0
    8.0622   -0.1200    0.0000 H   0  0  0  0  0  0  0  0  0  0  0  0
    8.0622    3.1200    0.0000 H   0  0  0  0  0  0  0  0  0  0  0  0
    9.8150   -0.1546    0.0000 H   0  0  0  0  0  0  0  0  0  0  0  0
    9.8150    3.1546    0.0000 H   0  0  0  0  0  0  0  0  0  0  0  0
   11.2639    0.6671    0.0000 H   0  0  0  0  0  0  0  0  0  0  0  0
   11.2639    2.3329    0.0000 H   0  0  0  0  0  0  0  0  0  0  0  0
    6.9501    3.5000    0.0000 H   0  0  0  0  0  0  0  0  0  0  0  0
    6.3301    4.1200    0.0000 H   0  0  0  0  0  0  0  0  0  0  0  0
    5.7101    3.5000    0.0000 H   0  0  0  0  0  0  0  0  0  0  0  0
  1 13  2  0  0  0  0
  2 15  1  0  0  0  0
  2 24  1  0  0  0  0
  3  8  1  0  0  0  0
  3  9  1  0  0  0  0
  3 10  1  0  0  0  0
  4  5  1  0  0  0  0
  4 13  1  0  0  0  0
  4 35  1  0  0  0  0
  5  6  1  0  0  0  0
  5  7  1  0  0  0  0
  5 25  1  0  0  0  0
  6  8  1  0  0  0  0
  6 28  1  0  0  0  0
  6 29  1  0  0  0  0
  7  9  1  0  0  0  0
  7 26  1  0  0  0  0
  7 27  1  0  0  0  0
  8 32  1  0  0  0  0
  8 33  1  0  0  0  0
  9 30  1  0  0  0  0
  9 31  1  0  0  0  0
 10 11  1  0  0  0  0
 10 12  1  0  0  0  0
 10 34  1  0  0  0  0
 11 36  1  0  0  0  0
 11 37  1  0  0  0  0
 11 38  1  0  0  0  0
 12 39  1  0  0  0  0
 12 40  1  0  0  0  0
 12 41  1  0  0  0  0
 13 14  1  0  0  0  0
 14 15  1  0  0  0  0
 14 16  2  0  0  0  0
 15 19  2  0  0  0  0
 16 17  1  0  0  0  0
 16 42  1  0  0  0  0
 17 18  1  0  0  0  0
 17 20  2  0  0  0  0
 18 19  1  0  0  0  0
 18 21  2  0  0  0  0
 19 43  1  0  0  0  0
 20 22  1  0  0  0  0
 20 44  1  0  0  0  0
 21 23  1  0  0  0  0
 21 45  1  0  0  0  0
 22 23  2  0  0  0  0
 22 46  1  0  0  0  0
 23 47  1  0  0  0  0
 24 48  1  0  0  0  0
 24 49  1  0  0  0  0
 24 50  1  0  0  0  0
M  END
> <PUBCHEM_COMPOUND_CID>
17395466

> <PUBCHEM_COMPOUND_CANONICALIZED>
1

> <PUBCHEM_CACTVS_COMPLEXITY>
418

> <PUBCHEM_CACTVS_HBOND_ACCEPTOR>
3

> <PUBCHEM_CACTVS_HBOND_DONOR>
1

> <PUBCHEM_CACTVS_ROTATABLE_BOND>
4

> <PUBCHEM_CACTVS_SUBSKEYS>
AAADceB7MAAAAAAAAAAAAAAAAAAAAAAAAAA8YIAAAAAAAADBUAAAHgAQAAAADCzBmAYyBsPABACIAiFSEACCCAAkIAAIiIEODMgMJjaE9RuEMWhm9hGIqYeYyPCO4AADAAAYAADAAAYAADAAAAAAAAAAAA==

> <PUBCHEM_IUPAC_OPENEYE_NAME>
N-(1-isopropyl-4-piperidyl)-3-methoxy-naphthalene-2-carboxamide

> <PUBCHEM_IUPAC_CAS_NAME>
3-methoxy-N-(1-propan-2-yl-4-piperidinyl)-2-naphthalenecarboxamide

> <PUBCHEM_IUPAC_NAME>
3-methoxy-N-(1-propan-2-ylpiperidin-4-yl)naphthalene-2-carboxamide

> <PUBCHEM_IUPAC_SYSTEMATIC_NAME>
3-methoxy-N-(1-propan-2-ylpiperidin-4-yl)naphthalene-2-carboxamide

> <PUBCHEM_IUPAC_TRADITIONAL_NAME>
N-(1-isopropyl-4-piperidyl)-3-methoxy-2-naphthamide

> <PUBCHEM_IUPAC_INCHI>
InChI=1S/C20H26N2O2/c1-14(2)22-10-8-17(9-11-22)21-20(23)18-12-15-6-4-5-7-16(15)13-19(18)24-3/h4-7,12-14,17H,8-11H2,1-3H3,(H,21,23)

> <PUBCHEM_IUPAC_INCHIKEY>
ILRCZKQDCQONMY-UHFFFAOYSA-N

> <PUBCHEM_XLOGP3_AA>
3.8

> <PUBCHEM_EXACT_MASS>
326.199428

> <PUBCHEM_MOLECULAR_FORMULA>
C20H26N2O2

> <PUBCHEM_MOLECULAR_WEIGHT>
326.43264

> <PUBCHEM_OPENEYE_CAN_SMILES>
CC(C)N1CCC(CC1)NC(=O)C2=CC3=CC=CC=C3C=C2OC

> <PUBCHEM_OPENEYE_ISO_SMILES>
CC(C)N1CCC(CC1)NC(=O)C2=CC3=CC=CC=C3C=C2OC

> <PUBCHEM_CACTVS_TPSA>
41.6

> <PUBCHEM_MONOISOTOPIC_WEIGHT>
326.199428

> <PUBCHEM_TOTAL_CHARGE>
0

> <PUBCHEM_HEAVY_ATOM_COUNT>
24

> <PUBCHEM_ATOM_DEF_STEREO_COUNT>
0

> <PUBCHEM_ATOM_UDEF_STEREO_COUNT>
0

> <PUBCHEM_BOND_DEF_STEREO_COUNT>
0

> <PUBCHEM_BOND_UDEF_STEREO_COUNT>
0

> <PUBCHEM_ISOTOPIC_ATOM_COUNT>
0

> <PUBCHEM_COMPONENT_COUNT>
1

> <PUBCHEM_CACTVS_TAUTO_COUNT>
2

> <PUBCHEM_COORDINATE_TYPE>
1
5
255

> <PUBCHEM_BONDANNOTATIONS>
14  15  8
14  16  8
15  19  8
16  17  8
17  18  8
17  20  8
18  19  8
18  21  8
20  22  8
21  23  8
22  23  8

$$$$

