4333
  -OEChem-06261200033D

 46 46  0     1  0  0  0  0  0999 V2000
   -0.3875    0.3555    1.8330 O   0  0  0  0  0  0  0  0  0  0  0  0
   -0.7765   -2.5245   -0.8725 O   0  0  0  0  0  0  0  0  0  0  0  0
    1.7396    4.3409    0.2949 O   0  0  0  0  0  0  0  0  0  0  0  0
   -2.1323   -1.3746    0.6314 N   0  0  0  0  0  0  0  0  0  0  0  0
   -0.0404    1.3337   -0.2443 N   0  0  0  0  0  0  0  0  0  0  0  0
   -3.2134    0.8264    0.3386 C   0  0  0  0  0  0  0  0  0  0  0  0
   -4.5495    0.2699   -0.1942 C   0  0  0  0  0  0  0  0  0  0  0  0
   -1.9917   -0.0594    0.0625 C   0  0  1  0  0  0  0  0  0  0  0  0
   -0.7401    0.5629    0.6738 C   0  0  0  0  0  0  0  0  0  0  0  0
   -4.4678    0.0979   -1.7136 C   0  0  0  0  0  0  0  0  0  0  0  0
   -5.7366    1.1668    0.1595 C   0  0  0  0  0  0  0  0  0  0  0  0
    1.2078    1.9940    0.0632 C   0  0  1  0  0  0  0  0  0  0  0  0
    2.3340    1.5870   -0.8882 C   0  0  0  0  0  0  0  0  0  0  0  0
    2.9526    0.2587   -0.5265 C   0  0  0  0  0  0  0  0  0  0  0  0
   -1.5095   -2.5003    0.1127 C   0  0  0  0  0  0  0  0  0  0  0  0
    0.9228    3.4781   -0.0178 C   0  0  0  0  0  0  0  0  0  0  0  0
    4.0390    0.2100    0.3471 C   0  0  0  0  0  0  0  0  0  0  0  0
    2.4379   -0.9204   -1.0657 C   0  0  0  0  0  0  0  0  0  0  0  0
   -1.8049   -3.7403    0.9134 C   0  0  0  0  0  0  0  0  0  0  0  0
    4.6108   -1.0176    0.6815 C   0  0  0  0  0  0  0  0  0  0  0  0
    3.0096   -2.1480   -0.7311 C   0  0  0  0  0  0  0  0  0  0  0  0
    4.0961   -2.1965    0.1424 C   0  0  0  0  0  0  0  0  0  0  0  0
   -3.0374    1.8246   -0.0845 H   0  0  0  0  0  0  0  0  0  0  0  0
   -3.3100    0.9760    1.4229 H   0  0  0  0  0  0  0  0  0  0  0  0
   -1.8310   -0.1700   -1.0156 H   0  0  0  0  0  0  0  0  0  0  0  0
   -4.7367   -0.7132    0.2548 H   0  0  0  0  0  0  0  0  0  0  0  0
   -3.7544   -0.6823   -1.9949 H   0  0  0  0  0  0  0  0  0  0  0  0
   -4.1732    1.0304   -2.2068 H   0  0  0  0  0  0  0  0  0  0  0  0
   -5.4398   -0.2029   -2.1202 H   0  0  0  0  0  0  0  0  0  0  0  0
   -5.6251    2.1635   -0.2805 H   0  0  0  0  0  0  0  0  0  0  0  0
   -6.6752    0.7364   -0.2055 H   0  0  0  0  0  0  0  0  0  0  0  0
   -5.8212    1.2836    1.2450 H   0  0  0  0  0  0  0  0  0  0  0  0
    1.4811    1.7879    1.1049 H   0  0  0  0  0  0  0  0  0  0  0  0
   -2.6549   -1.4635    1.4986 H   0  0  0  0  0  0  0  0  0  0  0  0
   -0.4315    1.4736   -1.1719 H   0  0  0  0  0  0  0  0  0  0  0  0
    3.1271    2.3468   -0.8861 H   0  0  0  0  0  0  0  0  0  0  0  0
    1.9735    1.5552   -1.9254 H   0  0  0  0  0  0  0  0  0  0  0  0
   -0.0680    3.7761   -0.4041 H   0  0  0  0  0  0  0  0  0  0  0  0
    4.4474    1.1214    0.7756 H   0  0  0  0  0  0  0  0  0  0  0  0
    1.5924   -0.8956   -1.7479 H   0  0  0  0  0  0  0  0  0  0  0  0
   -2.8697   -3.7929    1.1579 H   0  0  0  0  0  0  0  0  0  0  0  0
   -1.5367   -4.6261    0.3311 H   0  0  0  0  0  0  0  0  0  0  0  0
   -1.2195   -3.7235    1.8365 H   0  0  0  0  0  0  0  0  0  0  0  0
    5.4562   -1.0556    1.3622 H   0  0  0  0  0  0  0  0  0  0  0  0
    2.6081   -3.0661   -1.1502 H   0  0  0  0  0  0  0  0  0  0  0  0
    4.5408   -3.1524    0.4032 H   0  0  0  0  0  0  0  0  0  0  0  0
  1  9  2  0  0  0  0
  2 15  2  0  0  0  0
  3 16  2  0  0  0  0
  4  8  1  0  0  0  0
  4 15  1  0  0  0  0
  4 34  1  0  0  0  0
  5  9  1  0  0  0  0
  5 12  1  0  0  0  0
  5 35  1  0  0  0  0
  6  7  1  0  0  0  0
  6  8  1  0  0  0  0
  6 23  1  0  0  0  0
  6 24  1  0  0  0  0
  7 10  1  0  0  0  0
  7 11  1  0  0  0  0
  7 26  1  0  0  0  0
  8  9  1  0  0  0  0
  8 25  1  0  0  0  0
 10 27  1  0  0  0  0
 10 28  1  0  0  0  0
 10 29  1  0  0  0  0
 11 30  1  0  0  0  0
 11 31  1  0  0  0  0
 11 32  1  0  0  0  0
 12 13  1  0  0  0  0
 12 16  1  0  0  0  0
 12 33  1  0  0  0  0
 13 14  1  0  0  0  0
 13 36  1  0  0  0  0
 13 37  1  0  0  0  0
 14 17  2  0  0  0  0
 14 18  1  0  0  0  0
 15 19  1  0  0  0  0
 16 38  1  0  0  0  0
 17 20  1  0  0  0  0
 17 39  1  0  0  0  0
 18 21  2  0  0  0  0
 18 40  1  0  0  0  0
 19 41  1  0  0  0  0
 19 42  1  0  0  0  0
 19 43  1  0  0  0  0
 20 22  2  0  0  0  0
 20 44  1  0  0  0  0
 21 22  1  0  0  0  0
 21 45  1  0  0  0  0
 22 46  1  0  0  0  0
M  END
> <PUBCHEM_COMPOUND_CID>
4333

> <PUBCHEM_CONFORMER_RMSD>
1

> <PUBCHEM_CONFORMER_DIVERSEORDER>
1
274
99
59
311
201
172
196
296
69
271
42
186
70
71
189
301
128
251
32
206
67
125
46
232
211
9
130
54
38
33
7
147
267
244
312
293
6
163
273
124
288
245
200
295
182
15
262
171
242
65
141
122
169
184
53
202
173
37
277
221
135
22
160
87
8
48
268
257
103
225
150
286
248
157
264
213
105
49
194
278
210
275
155
308
156
256
80
253
192
96
158
187
217
88
313
290
117
300
280
144
126
97
66
86
229
84
77
18
159
21
183
143
3
118
106
154
151
314
193
176
73
209
208
119
226
43
109
121
168
306
81
298
243
152
305
239
259
23
279
307
74
174
282
131
75
40
5
237
181
102
219
12
39
41
178
114
14
230
215
30
223
153
138
162
164
134
177
250
149
191
197
85
148
252
299
214
36
265
190
165
57
58
212
111
56
204
269
139
310
11
170
127
247
207
10
4
199
47
44
233
78
272
302
255
16
254
285
205
270
76
115
104
179
110
123
31
61
284
303
79
315
136
283
175
91
89
292
246
228
83
51
108
146
218
94
261
120
2
26
304
180
249
52
68
287
19
64
142
234
238
203
266
129
25
60
107
236
161
92
198
95
240
241
100
29
188
258
101
116
62
317
281
90
50
276
316
227
132
137
28
224
112
291
72
98
20
82
35
93
263
309
55
297
231
166
113
185
289
24
167
145
17
13
216
260
140
34
294
63
45
27
195
133
222
235
220

> <PUBCHEM_MMFF94_PARTIAL_CHARGES>
26
1 -0.57
12 0.36
13 0.14
14 -0.14
15 0.57
16 0.45
17 -0.15
18 -0.15
19 0.06
2 -0.57
20 -0.15
21 -0.15
22 -0.15
3 -0.57
34 0.37
35 0.37
38 0.06
39 0.15
4 -0.73
40 0.15
44 0.15
45 0.15
46 0.15
5 -0.73
8 0.36
9 0.57

> <PUBCHEM_EFFECTIVE_ROTOR_COUNT>
10

> <PUBCHEM_PHARMACOPHORE_FEATURES>
7
1 1 acceptor
1 2 acceptor
1 3 acceptor
1 4 donor
1 5 donor
3 7 10 11 hydrophobe
6 14 17 18 20 21 22 rings

> <PUBCHEM_HEAVY_ATOM_COUNT>
22

> <PUBCHEM_ATOM_DEF_STEREO_COUNT>
0

> <PUBCHEM_ATOM_UDEF_STEREO_COUNT>
2

> <PUBCHEM_BOND_DEF_STEREO_COUNT>
0

> <PUBCHEM_BOND_UDEF_STEREO_COUNT>
0

> <PUBCHEM_ISOTOPIC_ATOM_COUNT>
0

> <PUBCHEM_COMPONENT_COUNT>
1

> <PUBCHEM_CACTVS_TAUTO_COUNT>
8

> <PUBCHEM_CONFORMER_ID>
000010ED00000001

> <PUBCHEM_MMFF94_ENERGY>
44.6234

> <PUBCHEM_FEATURE_SELFOVERLAP>
35.52

> <PUBCHEM_SHAPE_FINGERPRINT>
10366900 7 17530681018132640674
12507560 14 18337107964095078828
12553582 1 18264747978932482972
12592029 89 18200869694896267971
12633257 1 18412261735542292166
12670545 2 18129944588960158322
12788726 201 18266734882380305828
13004483 165 18269566099257584842
14466204 15 18266176330510864681
15099037 51 18342739641356948415
17349148 13 18040994051049187651
192875 21 18260544554226609973
21315764 371 15936418818553771678
22113638 7 18334862714096172054
22393880 68 18122047712034981084
23402539 116 18262244450616054876
23558518 356 17841149948700339363
23559900 14 18335987454641542960
3027735 51 17907015427936172510
34934 24 18411419488703943338
6138700 20 18194681694520290383
81228 2 17899956503520643240
9709674 26 18265329512956459399
9981440 41 17688880730711696425

> <PUBCHEM_SHAPE_MULTIPOLES>
425.18
9.6
4.15
1.13
5.77
1.02
0.09
-1.1
0.94
-1.49
-0.58
0.36
-0.2
0.29

> <PUBCHEM_SHAPE_SELFOVERLAP>
852.297

> <PUBCHEM_SHAPE_VOLUME>
249

> <PUBCHEM_COORDINATE_TYPE>
2
5
10

$$$$

