47205465
  -OEChem-06241222593D

 37 38  0     0  0  0  0  0  0999 V2000
    3.9646    1.5296   -0.0664 S   0  0  0  0  0  0  0  0  0  0  0  0
   -4.3627    3.0344    0.2923 F   0  0  0  0  0  0  0  0  0  0  0  0
    4.4425    2.5422    0.8542 O   0  0  0  0  0  0  0  0  0  0  0  0
    4.3376    1.5567   -1.4670 O   0  0  0  0  0  0  0  0  0  0  0  0
   -0.1284   -2.2667    1.4857 O   0  0  0  0  0  0  0  0  0  0  0  0
    2.1367   -1.0073    0.1272 N   0  0  0  0  0  0  0  0  0  0  0  0
   -0.9559   -2.1929   -0.6830 N   0  0  0  0  0  0  0  0  0  0  0  0
    2.1920    1.4789    0.0416 C   0  0  0  0  0  0  0  0  0  0  0  0
    4.3901   -0.0631    0.5965 C   0  0  0  0  0  0  0  0  0  0  0  0
    3.5874   -1.1777   -0.0637 C   0  0  0  0  0  0  0  0  0  0  0  0
    1.6303    0.1948   -0.5573 C   0  0  0  0  0  0  0  0  0  0  0  0
    1.4279   -2.1934   -0.3604 C   0  0  0  0  0  0  0  0  0  0  0  0
    0.0510   -2.2314    0.2704 C   0  0  0  0  0  0  0  0  0  0  0  0
   -2.3627   -2.1895   -0.3508 C   0  0  0  0  0  0  0  0  0  0  0  0
   -2.8962   -0.7965   -0.1794 C   0  0  0  0  0  0  0  0  0  0  0  0
   -2.8662   -0.1880    1.0754 C   0  0  0  0  0  0  0  0  0  0  0  0
   -3.4216   -0.1108   -1.2747 C   0  0  0  0  0  0  0  0  0  0  0  0
   -3.3618    1.1060    1.2350 C   0  0  0  0  0  0  0  0  0  0  0  0
   -3.9172    1.1831   -1.1152 C   0  0  0  0  0  0  0  0  0  0  0  0
   -3.8874    1.7915    0.1397 C   0  0  0  0  0  0  0  0  0  0  0  0
    1.8558    0.1516   -1.6309 H   0  0  0  0  0  0  0  0  0  0  0  0
    0.5400    0.2574   -0.4629 H   0  0  0  0  0  0  0  0  0  0  0  0
    3.9103   -2.1205    0.3952 H   0  0  0  0  0  0  0  0  0  0  0  0
    3.8310   -1.2397   -1.1323 H   0  0  0  0  0  0  0  0  0  0  0  0
    1.9235    1.5704    1.0994 H   0  0  0  0  0  0  0  0  0  0  0  0
    1.8094    2.3559   -0.4894 H   0  0  0  0  0  0  0  0  0  0  0  0
    5.4627   -0.2066    0.4335 H   0  0  0  0  0  0  0  0  0  0  0  0
    4.2053   -0.0304    1.6755 H   0  0  0  0  0  0  0  0  0  0  0  0
    1.9222   -3.1139   -0.0232 H   0  0  0  0  0  0  0  0  0  0  0  0
    1.3932   -2.2337   -1.4554 H   0  0  0  0  0  0  0  0  0  0  0  0
   -0.7114   -2.1381   -1.6673 H   0  0  0  0  0  0  0  0  0  0  0  0
   -2.8931   -2.7083   -1.1574 H   0  0  0  0  0  0  0  0  0  0  0  0
   -2.5225   -2.7741    0.5629 H   0  0  0  0  0  0  0  0  0  0  0  0
   -2.4623   -0.7107    1.9380 H   0  0  0  0  0  0  0  0  0  0  0  0
   -3.4486   -0.5733   -2.2578 H   0  0  0  0  0  0  0  0  0  0  0  0
   -3.3389    1.5800    2.2118 H   0  0  0  0  0  0  0  0  0  0  0  0
   -4.3258    1.7175   -1.9677 H   0  0  0  0  0  0  0  0  0  0  0  0
  1  3  2  0  0  0  0
  1  4  2  0  0  0  0
  1  8  1  0  0  0  0
  1  9  1  0  0  0  0
  2 20  1  0  0  0  0
  5 13  2  0  0  0  0
  6 10  1  0  0  0  0
  6 11  1  0  0  0  0
  6 12  1  0  0  0  0
  7 13  1  0  0  0  0
  7 14  1  0  0  0  0
  7 31  1  0  0  0  0
  8 11  1  0  0  0  0
  8 25  1  0  0  0  0
  8 26  1  0  0  0  0
  9 10  1  0  0  0  0
  9 27  1  0  0  0  0
  9 28  1  0  0  0  0
 10 23  1  0  0  0  0
 10 24  1  0  0  0  0
 11 21  1  0  0  0  0
 11 22  1  0  0  0  0
 12 13  1  0  0  0  0
 12 29  1  0  0  0  0
 12 30  1  0  0  0  0
 14 15  1  0  0  0  0
 14 32  1  0  0  0  0
 14 33  1  0  0  0  0
 15 16  2  0  0  0  0
 15 17  1  0  0  0  0
 16 18  1  0  0  0  0
 16 34  1  0  0  0  0
 17 19  2  0  0  0  0
 17 35  1  0  0  0  0
 18 20  2  0  0  0  0
 18 36  1  0  0  0  0
 19 20  1  0  0  0  0
 19 37  1  0  0  0  0
M  END
> <PUBCHEM_COMPOUND_CID>
47205465

> <PUBCHEM_CONFORMER_RMSD>
0.8

> <PUBCHEM_CONFORMER_DIVERSEORDER>
4
50
19
53
40
57
15
26
24
20
44
32
16
25
35
56
51
5
23
2
55
54
46
18
6
3
49
47
41
37
12
17
7
28
62
42
60
30
43
45
36
9
8
52
48
11
59
31
58
39
29
34
33
14
61
1
21
38
27
22
13
10

> <PUBCHEM_MMFF94_PARTIAL_CHARGES>
25
1 1.09
10 0.27
11 0.27
12 0.33
13 0.57
14 0.44
15 -0.14
16 -0.15
17 -0.15
18 -0.15
19 -0.15
2 -0.19
20 0.19
3 -0.65
31 0.37
34 0.15
35 0.15
36 0.15
37 0.15
4 -0.65
5 -0.57
6 -0.81
7 -0.73
8 0.11
9 0.11

> <PUBCHEM_EFFECTIVE_ROTOR_COUNT>
6

> <PUBCHEM_PHARMACOPHORE_FEATURES>
7
1 3 acceptor
1 4 acceptor
1 5 acceptor
1 6 cation
1 7 donor
6 1 6 8 9 10 11 rings
6 15 16 17 18 19 20 rings

> <PUBCHEM_HEAVY_ATOM_COUNT>
20

> <PUBCHEM_ATOM_DEF_STEREO_COUNT>
0

> <PUBCHEM_ATOM_UDEF_STEREO_COUNT>
0

> <PUBCHEM_BOND_DEF_STEREO_COUNT>
0

> <PUBCHEM_BOND_UDEF_STEREO_COUNT>
0

> <PUBCHEM_ISOTOPIC_ATOM_COUNT>
0

> <PUBCHEM_COMPONENT_COUNT>
1

> <PUBCHEM_CACTVS_TAUTO_COUNT>
2

> <PUBCHEM_CONFORMER_ID>
02D04C5900000004

> <PUBCHEM_MMFF94_ENERGY>
31.3668

> <PUBCHEM_FEATURE_SELFOVERLAP>
35.537

> <PUBCHEM_SHAPE_MULTIPOLES>
380.6
10.32
3.18
1.17
2.92
0.08
0.01
7.85
-0.36
-0.42
0.26
-0.45
0.1
-0.34

> <PUBCHEM_SHAPE_SELFOVERLAP>
774.711

> <PUBCHEM_SHAPE_VOLUME>
222

> <PUBCHEM_COORDINATE_TYPE>
2
5
10

$$$$

