13494
  -OEChem-06261214463D

 51 52  0     1  0  0  0  0  0999 V2000
    0.2728    1.3058   -0.8137 O   0  0  0  0  0  0  0  0  0  0  0  0
   -3.3415    1.3644    2.2610 O   0  0  0  0  0  0  0  0  0  0  0  0
    7.7585    0.9697    0.1770 O   0  5  0  0  0  0  0  0  0  0  0  0
    7.0554    1.8157   -1.7228 O   0  0  0  0  0  0  0  0  0  0  0  0
   -2.0687    0.8774    0.3843 N   0  0  0  0  0  0  0  0  0  0  0  0
    1.5034    0.4808    1.0060 N   0  0  0  0  0  0  0  0  0  0  0  0
   -0.9872   -4.2602   -0.7382 N   0  0  0  0  0  0  0  0  0  0  0  0
    6.8308    1.3039   -0.5992 N   0  3  0  0  0  0  0  0  0  0  0  0
   -0.9993   -6.2747    0.5701 N   0  0  0  0  0  0  0  0  0  0  0  0
   -0.9716   -6.3657   -1.7072 N   0  0  0  0  0  0  0  0  0  0  0  0
   -0.9058    0.3991    1.0869 C   0  0  1  0  0  0  0  0  0  0  0  0
   -0.9924   -1.1041    1.3781 C   0  0  0  0  0  0  0  0  0  0  0  0
   -0.9774   -1.9868    0.1243 C   0  0  0  0  0  0  0  0  0  0  0  0
    0.3455    0.7792    0.2930 C   0  0  0  0  0  0  0  0  0  0  0  0
   -1.0036   -3.4664    0.4915 C   0  0  0  0  0  0  0  0  0  0  0  0
   -3.2065    1.3268    1.0408 C   0  0  0  0  0  0  0  0  0  0  0  0
    2.8437    0.6876    0.6018 C   0  0  0  0  0  0  0  0  0  0  0  0
   -4.3305    1.7626    0.1726 C   0  0  0  0  0  0  0  0  0  0  0  0
    3.8912    0.3242    1.4483 C   0  0  0  0  0  0  0  0  0  0  0  0
    3.1173    1.2552   -0.6426 C   0  0  0  0  0  0  0  0  0  0  0  0
   -5.6423    1.6908    0.6413 C   0  0  0  0  0  0  0  0  0  0  0  0
   -4.0740    2.2444   -1.1112 C   0  0  0  0  0  0  0  0  0  0  0  0
    5.2123    0.5284    1.0504 C   0  0  0  0  0  0  0  0  0  0  0  0
    4.4386    1.4595   -1.0406 C   0  0  0  0  0  0  0  0  0  0  0  0
   -0.9865   -5.5496   -0.6007 C   0  0  0  0  0  0  0  0  0  0  0  0
    5.4861    1.0962   -0.1939 C   0  0  0  0  0  0  0  0  0  0  0  0
   -6.6977    2.1002   -0.1738 C   0  0  0  0  0  0  0  0  0  0  0  0
   -5.1294    2.6540   -1.9261 C   0  0  0  0  0  0  0  0  0  0  0  0
   -6.4412    2.5819   -1.4573 C   0  0  0  0  0  0  0  0  0  0  0  0
   -0.8528    0.9315    2.0458 H   0  0  0  0  0  0  0  0  0  0  0  0
   -1.9128   -1.3077    1.9410 H   0  0  0  0  0  0  0  0  0  0  0  0
   -0.1643   -1.4050    2.0310 H   0  0  0  0  0  0  0  0  0  0  0  0
   -0.0815   -1.7845   -0.4745 H   0  0  0  0  0  0  0  0  0  0  0  0
   -1.8401   -1.7526   -0.5110 H   0  0  0  0  0  0  0  0  0  0  0  0
   -2.0573    0.8013   -0.6274 H   0  0  0  0  0  0  0  0  0  0  0  0
   -1.9104   -3.6801    1.0701 H   0  0  0  0  0  0  0  0  0  0  0  0
   -0.1273   -3.7007    1.1081 H   0  0  0  0  0  0  0  0  0  0  0  0
    1.3973    0.0773    1.9337 H   0  0  0  0  0  0  0  0  0  0  0  0
    3.6912   -0.1192    2.4205 H   0  0  0  0  0  0  0  0  0  0  0  0
    2.3620    1.5602   -1.3529 H   0  0  0  0  0  0  0  0  0  0  0  0
   -5.8630    1.3144    1.6366 H   0  0  0  0  0  0  0  0  0  0  0  0
   -3.0665    2.3466   -1.5033 H   0  0  0  0  0  0  0  0  0  0  0  0
    6.0027    0.2330    1.7357 H   0  0  0  0  0  0  0  0  0  0  0  0
    4.6156    1.9037   -2.0170 H   0  0  0  0  0  0  0  0  0  0  0  0
   -7.7192    2.0434    0.1907 H   0  0  0  0  0  0  0  0  0  0  0  0
   -4.9299    3.0360   -2.9230 H   0  0  0  0  0  0  0  0  0  0  0  0
   -7.2628    2.9023   -2.0913 H   0  0  0  0  0  0  0  0  0  0  0  0
   -0.9973   -7.2890    0.5565 H   0  0  0  0  0  0  0  0  0  0  0  0
   -1.0126   -5.8308    1.4814 H   0  0  0  0  0  0  0  0  0  0  0  0
   -0.9717   -7.3761   -1.6211 H   0  0  0  0  0  0  0  0  0  0  0  0
   -0.9614   -5.9775   -2.6441 H   0  0  0  0  0  0  0  0  0  0  0  0
  1 14  2  0  0  0  0
  2 16  2  0  0  0  0
  3  8  1  0  0  0  0
  4  8  2  0  0  0  0
  5 11  1  0  0  0  0
  5 16  1  0  0  0  0
  5 35  1  0  0  0  0
  6 14  1  0  0  0  0
  6 17  1  0  0  0  0
  6 38  1  0  0  0  0
  7 15  1  0  0  0  0
  7 25  2  0  0  0  0
  8 26  1  0  0  0  0
  9 25  1  0  0  0  0
  9 48  1  0  0  0  0
  9 49  1  0  0  0  0
 10 25  1  0  0  0  0
 10 50  1  0  0  0  0
 10 51  1  0  0  0  0
 11 12  1  0  0  0  0
 11 14  1  0  0  0  0
 11 30  1  0  0  0  0
 12 13  1  0  0  0  0
 12 31  1  0  0  0  0
 12 32  1  0  0  0  0
 13 15  1  0  0  0  0
 13 33  1  0  0  0  0
 13 34  1  0  0  0  0
 15 36  1  0  0  0  0
 15 37  1  0  0  0  0
 16 18  1  0  0  0  0
 17 19  2  0  0  0  0
 17 20  1  0  0  0  0
 18 21  2  0  0  0  0
 18 22  1  0  0  0  0
 19 23  1  0  0  0  0
 19 39  1  0  0  0  0
 20 24  2  0  0  0  0
 20 40  1  0  0  0  0
 21 27  1  0  0  0  0
 21 41  1  0  0  0  0
 22 28  2  0  0  0  0
 22 42  1  0  0  0  0
 23 26  2  0  0  0  0
 23 43  1  0  0  0  0
 24 26  1  0  0  0  0
 24 44  1  0  0  0  0
 27 29  2  0  0  0  0
 27 45  1  0  0  0  0
 28 29  1  0  0  0  0
 28 46  1  0  0  0  0
 29 47  1  0  0  0  0
M  CHG  2   3  -1   8   1
M  END
> <PUBCHEM_COMPOUND_CID>
13494

> <PUBCHEM_CONFORMER_RMSD>
1.2

> <PUBCHEM_CONFORMER_DIVERSEORDER>
1
65
3
9
37
16
18
14
32
56
34
70
42
44
40
20
31
60
15
27
71
22
28
64
50
59
41
4
33
43
5
10
35
58
63
54
26
17
25
66
36
47
23
49
67
68
12
2
62
19
69
45
61
11
52
39
6
53
48
30
57
7
24
13
21
29
55
8
38
46
51

> <PUBCHEM_MMFF94_PARTIAL_CHARGES>
42
1 -0.57
10 -0.85
11 0.36
14 0.57
15 0.25
16 0.54
17 0.12
18 0.09
19 -0.15
2 -0.57
20 -0.15
21 -0.15
22 -0.15
23 -0.15
24 -0.15
25 0.55
26 0.13
27 -0.15
28 -0.15
29 -0.15
3 -0.52
35 0.37
38 0.37
39 0.15
4 -0.52
40 0.15
41 0.15
42 0.15
43 0.15
44 0.15
45 0.15
46 0.15
47 0.15
48 0.4
49 0.4
5 -0.73
50 0.4
51 0.4
6 -0.55
7 -0.7
8 0.91
9 -0.85

> <PUBCHEM_EFFECTIVE_ROTOR_COUNT>
11

> <PUBCHEM_PHARMACOPHORE_FEATURES>
12
1 1 acceptor
1 10 donor
1 2 acceptor
1 3 acceptor
1 3 anion
1 4 acceptor
1 5 donor
1 6 donor
1 9 donor
4 7 9 10 25 cation
6 17 19 20 23 24 26 rings
6 18 21 22 27 28 29 rings

> <PUBCHEM_HEAVY_ATOM_COUNT>
29

> <PUBCHEM_ATOM_DEF_STEREO_COUNT>
0

> <PUBCHEM_ATOM_UDEF_STEREO_COUNT>
1

> <PUBCHEM_BOND_DEF_STEREO_COUNT>
0

> <PUBCHEM_BOND_UDEF_STEREO_COUNT>
0

> <PUBCHEM_ISOTOPIC_ATOM_COUNT>
0

> <PUBCHEM_COMPONENT_COUNT>
1

> <PUBCHEM_CACTVS_TAUTO_COUNT>
8

> <PUBCHEM_CONFORMER_ID>
000034B600000001

> <PUBCHEM_MMFF94_ENERGY>
86.2395

> <PUBCHEM_FEATURE_SELFOVERLAP>
61.03

> <PUBCHEM_SHAPE_FINGERPRINT>
102385 1 17832710075871214713
10369192 42 18272087227939029333
11297750 10 17682962085272383787
11488393 25 17909273829579062451
11991303 11 18410855425784644462
12597179 24 18260545645100973878
13690498 29 18049711924454340850
13911987 19 18410576214868017961
13968360 50 18266470969719936915
15439362 3 18123187081149011473
15878777 1 15398235729847266035
17980427 26 17537406863766556843
19301679 30 9511195069845756033
20505436 4 18060703888268129050
21365058 27 18408886256958198887
25019877 29 18413385454217659301
3057174 1 18337391651249349095
3103668 31 18122073009872882967
4015057 19 16588028957285419232
4017518 198 18337105761368193646
4409770 3 18266457616688264963
44249763 50 18341057294484171080
44802255 64 18342729711308060380
504843 32 18342174449631526699
6669772 16 18334853978222466919
6691757 9 18259979367059269922
6898599 12 18268144263019010644

> <PUBCHEM_SHAPE_MULTIPOLES>
543.44
17.02
6.9
1.63
13.35
23.7
0.07
-24.54
5.03
-5.21
3.57
-0.64
-0.29
-0.04

> <PUBCHEM_SHAPE_SELFOVERLAP>
1138.251

> <PUBCHEM_SHAPE_VOLUME>
303.3

> <PUBCHEM_COORDINATE_TYPE>
2
5
10

$$$$

