47205599
  -OEChem-06241222592D

 38 39  0     0  0  0  0  0  0999 V2000
    4.5981    2.6488    0.0000 O   0  0  0  0  0  0  0  0  0  0  0  0
    5.4641   -0.8512    0.0000 O   0  0  0  0  0  0  0  0  0  0  0  0
    5.4641    1.1488    0.0000 N   0  0  0  0  0  0  0  0  0  0  0  0
    4.5981    0.6488    0.0000 N   0  0  0  0  0  0  0  0  0  0  0  0
    3.7320   -0.8512    0.0000 N   0  0  0  0  0  0  0  0  0  0  0  0
    6.3301    2.6488    0.0000 C   0  0  0  0  0  0  0  0  0  0  0  0
    7.2437    2.2420    0.0000 C   0  0  0  0  0  0  0  0  0  0  0  0
    6.4347    3.6433    0.0000 C   0  0  0  0  0  0  0  0  0  0  0  0
    7.9128    2.9852    0.0000 C   0  0  0  0  0  0  0  0  0  0  0  0
    7.4128    3.8512    0.0000 C   0  0  0  0  0  0  0  0  0  0  0  0
    5.4641    2.1488    0.0000 C   0  0  0  0  0  0  0  0  0  0  0  0
    4.5981   -0.3512    0.0000 C   0  0  0  0  0  0  0  0  0  0  0  0
    3.7320   -1.8512    0.0000 C   0  0  0  0  0  0  0  0  0  0  0  0
    2.8660   -2.3512    0.0000 C   0  0  0  0  0  0  0  0  0  0  0  0
    4.5981   -2.3512    0.0000 C   0  0  0  0  0  0  0  0  0  0  0  0
    2.8660   -3.3512    0.0000 C   0  0  0  0  0  0  0  0  0  0  0  0
    2.0000   -1.8512    0.0000 C   0  0  0  0  0  0  0  0  0  0  0  0
    4.5981   -3.3512    0.0000 C   0  0  0  0  0  0  0  0  0  0  0  0
    3.7320   -3.8512    0.0000 C   0  0  0  0  0  0  0  0  0  0  0  0
    5.8102    2.9865    0.0000 H   0  0  0  0  0  0  0  0  0  0  0  0
    6.9337    1.7051    0.0000 H   0  0  0  0  0  0  0  0  0  0  0  0
    7.7453    1.8776    0.0000 H   0  0  0  0  0  0  0  0  0  0  0  0
    6.3698    4.2599    0.0000 H   0  0  0  0  0  0  0  0  0  0  0  0
    5.8147    3.6433    0.0000 H   0  0  0  0  0  0  0  0  0  0  0  0
    8.3277    2.5244    0.0000 H   0  0  0  0  0  0  0  0  0  0  0  0
    8.4144    3.3496    0.0000 H   0  0  0  0  0  0  0  0  0  0  0  0
    7.9792    4.1034    0.0000 H   0  0  0  0  0  0  0  0  0  0  0  0
    7.2212    4.4409    0.0000 H   0  0  0  0  0  0  0  0  0  0  0  0
    6.0010    0.8388    0.0000 H   0  0  0  0  0  0  0  0  0  0  0  0
    4.0611    0.9588    0.0000 H   0  0  0  0  0  0  0  0  0  0  0  0
    3.1951   -0.5412    0.0000 H   0  0  0  0  0  0  0  0  0  0  0  0
    5.1350   -2.0412    0.0000 H   0  0  0  0  0  0  0  0  0  0  0  0
    2.3291   -3.6612    0.0000 H   0  0  0  0  0  0  0  0  0  0  0  0
    2.3100   -1.3143    0.0000 H   0  0  0  0  0  0  0  0  0  0  0  0
    1.4631   -1.5412    0.0000 H   0  0  0  0  0  0  0  0  0  0  0  0
    1.6900   -2.3882    0.0000 H   0  0  0  0  0  0  0  0  0  0  0  0
    5.1350   -3.6612    0.0000 H   0  0  0  0  0  0  0  0  0  0  0  0
    3.7320   -4.4712    0.0000 H   0  0  0  0  0  0  0  0  0  0  0  0
  1 11  2  0  0  0  0
  2 12  2  0  0  0  0
  3  4  1  0  0  0  0
  3 11  1  0  0  0  0
  3 29  1  0  0  0  0
  4 12  1  0  0  0  0
  4 30  1  0  0  0  0
  5 12  1  0  0  0  0
  5 13  1  0  0  0  0
  5 31  1  0  0  0  0
  6  7  1  0  0  0  0
  6  8  1  0  0  0  0
  6 11  1  0  0  0  0
  6 20  1  0  0  0  0
  7  9  1  0  0  0  0
  7 21  1  0  0  0  0
  7 22  1  0  0  0  0
  8 10  1  0  0  0  0
  8 23  1  0  0  0  0
  8 24  1  0  0  0  0
  9 10  1  0  0  0  0
  9 25  1  0  0  0  0
  9 26  1  0  0  0  0
 10 27  1  0  0  0  0
 10 28  1  0  0  0  0
 13 14  1  0  0  0  0
 13 15  2  0  0  0  0
 14 16  2  0  0  0  0
 14 17  1  0  0  0  0
 15 18  1  0  0  0  0
 15 32  1  0  0  0  0
 16 19  1  0  0  0  0
 16 33  1  0  0  0  0
 17 34  1  0  0  0  0
 17 35  1  0  0  0  0
 17 36  1  0  0  0  0
 18 19  2  0  0  0  0
 18 37  1  0  0  0  0
 19 38  1  0  0  0  0
M  END
> <PUBCHEM_COMPOUND_CID>
47205599

> <PUBCHEM_COMPOUND_CANONICALIZED>
1

> <PUBCHEM_CACTVS_COMPLEXITY>
327

> <PUBCHEM_CACTVS_HBOND_ACCEPTOR>
2

> <PUBCHEM_CACTVS_HBOND_DONOR>
3

> <PUBCHEM_CACTVS_ROTATABLE_BOND>
2

> <PUBCHEM_CACTVS_SUBSKEYS>
AAADceBzMAAAAAAAAAAAAAAAAAAAAYAAAAAwAAAAAAAAAAABAAAAHgAYAAAADQiBmAAzwILiAACIAiVSUACCAAAhAgIeqAEAZIiIIDLAkZGEIAhwlAJIyCcYiAAOAAAAAAACAAAAAAAAAAQAAAAAAAAAAA==

> <PUBCHEM_IUPAC_OPENEYE_NAME>
1-(cyclopentanecarbonylamino)-3-(o-tolyl)urea

> <PUBCHEM_IUPAC_CAS_NAME>
1-[[cyclopentyl(oxo)methyl]amino]-3-(2-methylphenyl)urea

> <PUBCHEM_IUPAC_NAME>
1-(cyclopentanecarbonylamino)-3-(2-methylphenyl)urea

> <PUBCHEM_IUPAC_SYSTEMATIC_NAME>
1-(cyclopentylcarbonylamino)-3-(2-methylphenyl)urea

> <PUBCHEM_IUPAC_TRADITIONAL_NAME>
1-(cyclopentanecarbonylamino)-3-(o-tolyl)urea

> <PUBCHEM_IUPAC_INCHI>
InChI=1S/C14H19N3O2/c1-10-6-2-5-9-12(10)15-14(19)17-16-13(18)11-7-3-4-8-11/h2,5-6,9,11H,3-4,7-8H2,1H3,(H,16,18)(H2,15,17,19)

> <PUBCHEM_IUPAC_INCHIKEY>
BLJDUVGFKGUGAR-UHFFFAOYSA-N

> <PUBCHEM_XLOGP3_AA>
2.3

> <PUBCHEM_EXACT_MASS>
261.147727

> <PUBCHEM_MOLECULAR_FORMULA>
C14H19N3O2

> <PUBCHEM_MOLECULAR_WEIGHT>
261.31956

> <PUBCHEM_OPENEYE_CAN_SMILES>
CC1=CC=CC=C1NC(=O)NNC(=O)C2CCCC2

> <PUBCHEM_OPENEYE_ISO_SMILES>
CC1=CC=CC=C1NC(=O)NNC(=O)C2CCCC2

> <PUBCHEM_CACTVS_TPSA>
70.2

> <PUBCHEM_MONOISOTOPIC_WEIGHT>
261.147727

> <PUBCHEM_TOTAL_CHARGE>
0

> <PUBCHEM_HEAVY_ATOM_COUNT>
19

> <PUBCHEM_ATOM_DEF_STEREO_COUNT>
0

> <PUBCHEM_ATOM_UDEF_STEREO_COUNT>
0

> <PUBCHEM_BOND_DEF_STEREO_COUNT>
0

> <PUBCHEM_BOND_UDEF_STEREO_COUNT>
0

> <PUBCHEM_ISOTOPIC_ATOM_COUNT>
0

> <PUBCHEM_COMPONENT_COUNT>
1

> <PUBCHEM_CACTVS_TAUTO_COUNT>
6

> <PUBCHEM_COORDINATE_TYPE>
1
5
255

> <PUBCHEM_BONDANNOTATIONS>
13  14  8
13  15  8
14  16  8
15  18  8
16  19  8
18  19  8

$$$$

