47205079
  -OEChem-06241222583D

 30 31  0     0  0  0  0  0  0999 V2000
   -0.2556    2.9083   -0.3879 Cl  0  0  0  0  0  0  0  0  0  0  0  0
   -4.7396   -1.4905    0.0744 S   0  0  0  0  0  0  0  0  0  0  0  0
    0.5704    0.8895    1.8711 O   0  0  0  0  0  0  0  0  0  0  0  0
    0.7704   -0.9540    0.4787 N   0  0  0  0  0  0  0  0  0  0  0  0
    3.5472   -1.1019   -1.0336 N   0  0  0  0  0  0  0  0  0  0  0  0
    4.5818   -0.4025   -1.5300 N   0  0  0  0  0  0  0  0  0  0  0  0
    2.0583   -1.3932    0.9660 C   0  0  0  0  0  0  0  0  0  0  0  0
    3.1909   -0.7364    0.2313 C   0  0  0  0  0  0  0  0  0  0  0  0
   -1.2004    0.4708    0.3921 C   0  0  0  0  0  0  0  0  0  0  0  0
    0.1044    0.1726    0.9704 C   0  0  0  0  0  0  0  0  0  0  0  0
   -2.1995   -0.4976    0.4898 C   0  0  0  0  0  0  0  0  0  0  0  0
   -1.4643    1.6832   -0.2453 C   0  0  0  0  0  0  0  0  0  0  0  0
   -3.4623   -0.2538   -0.0499 C   0  0  0  0  0  0  0  0  0  0  0  0
    4.0527    0.2721    0.5873 C   0  0  0  0  0  0  0  0  0  0  0  0
   -2.7272    1.9271   -0.7850 C   0  0  0  0  0  0  0  0  0  0  0  0
   -3.7262    0.9586   -0.6873 C   0  0  0  0  0  0  0  0  0  0  0  0
    4.8864    0.4354   -0.5353 C   0  0  0  0  0  0  0  0  0  0  0  0
   -3.9872   -2.8875   -0.8068 C   0  0  0  0  0  0  0  0  0  0  0  0
    2.1052   -2.4801    0.8389 H   0  0  0  0  0  0  0  0  0  0  0  0
    2.1301   -1.1749    2.0372 H   0  0  0  0  0  0  0  0  0  0  0  0
    0.3427   -1.4906   -0.2707 H   0  0  0  0  0  0  0  0  0  0  0  0
   -1.9931   -1.4365    0.9998 H   0  0  0  0  0  0  0  0  0  0  0  0
    4.0744    0.8123    1.5224 H   0  0  0  0  0  0  0  0  0  0  0  0
    3.1293   -1.8169   -1.6162 H   0  0  0  0  0  0  0  0  0  0  0  0
   -2.9489    2.8667   -1.2849 H   0  0  0  0  0  0  0  0  0  0  0  0
   -4.7043    1.1665   -1.1141 H   0  0  0  0  0  0  0  0  0  0  0  0
    5.7028    1.1303   -0.6699 H   0  0  0  0  0  0  0  0  0  0  0  0
   -4.7178   -3.6970   -0.8840 H   0  0  0  0  0  0  0  0  0  0  0  0
   -3.1128   -3.2606   -0.2674 H   0  0  0  0  0  0  0  0  0  0  0  0
   -3.6914   -2.5862   -1.8153 H   0  0  0  0  0  0  0  0  0  0  0  0
  1 12  1  0  0  0  0
  2 13  1  0  0  0  0
  2 18  1  0  0  0  0
  3 10  2  0  0  0  0
  4  7  1  0  0  0  0
  4 10  1  0  0  0  0
  4 21  1  0  0  0  0
  5  6  1  0  0  0  0
  5  8  1  0  0  0  0
  5 24  1  0  0  0  0
  6 17  2  0  0  0  0
  7  8  1  0  0  0  0
  7 19  1  0  0  0  0
  7 20  1  0  0  0  0
  8 14  2  0  0  0  0
  9 10  1  0  0  0  0
  9 11  1  0  0  0  0
  9 12  2  0  0  0  0
 11 13  2  0  0  0  0
 11 22  1  0  0  0  0
 12 15  1  0  0  0  0
 13 16  1  0  0  0  0
 14 17  1  0  0  0  0
 14 23  1  0  0  0  0
 15 16  2  0  0  0  0
 15 25  1  0  0  0  0
 16 26  1  0  0  0  0
 17 27  1  0  0  0  0
 18 28  1  0  0  0  0
 18 29  1  0  0  0  0
 18 30  1  0  0  0  0
M  END
> <PUBCHEM_COMPOUND_CID>
47205079

> <PUBCHEM_CONFORMER_RMSD>
0.6

> <PUBCHEM_CONFORMER_DIVERSEORDER>
3
105
122
90
171
154
42
142
88
168
28
52
148
72
170
106
130
44
96
63
161
51
108
169
114
62
145
34
103
166
144
125
54
11
65
165
67
7
138
111
30
147
76
71
151
104
32
172
136
83
29
39
173
149
107
156
33
19
98
159
141
124
117
163
38
10
167
110
97
135
109
94
78
162
93
146
35
134
79
155
82
143
25
27
160
50
113
158
140
45
118
133
57
21
152
95
120
153
89
131
22
157
9
123
66
41
70
132
55
139
164
6
84
129
112
80
26
69
64
87
86
75
126
43
116
92
102
2
127
53
128
15
61
18
81
49
68
8
137
115
47
37
31
77
5
36
1
14
101
74
48
40
24
60
17
85
23
121
16
73
4
58
150
20
12
56
99
91
13
46
119
59
100

> <PUBCHEM_MMFF94_PARTIAL_CHARGES>
25
1 -0.18
10 0.54
11 -0.15
12 0.18
13 0.1
14 -0.15
15 -0.15
16 -0.15
17 0.14
18 0.23
2 -0.33
21 0.37
22 0.15
23 0.15
24 0.27
25 0.15
26 0.15
27 0.15
3 -0.57
4 -0.73
5 0.3
6 -0.71
7 0.48
8 -0.33
9 0.09

> <PUBCHEM_EFFECTIVE_ROTOR_COUNT>
5

> <PUBCHEM_PHARMACOPHORE_FEATURES>
7
1 18 hydrophobe
1 3 acceptor
1 4 donor
1 5 donor
1 6 acceptor
5 5 6 8 14 17 rings
6 9 11 12 13 15 16 rings

> <PUBCHEM_HEAVY_ATOM_COUNT>
18

> <PUBCHEM_ATOM_DEF_STEREO_COUNT>
0

> <PUBCHEM_ATOM_UDEF_STEREO_COUNT>
0

> <PUBCHEM_BOND_DEF_STEREO_COUNT>
0

> <PUBCHEM_BOND_UDEF_STEREO_COUNT>
0

> <PUBCHEM_ISOTOPIC_ATOM_COUNT>
0

> <PUBCHEM_COMPONENT_COUNT>
1

> <PUBCHEM_CACTVS_TAUTO_COUNT>
4

> <PUBCHEM_CONFORMER_ID>
02D04AD700000003

> <PUBCHEM_MMFF94_ENERGY>
35.1632

> <PUBCHEM_FEATURE_SELFOVERLAP>
35.52

> <PUBCHEM_SHAPE_MULTIPOLES>
355.34
10.14
2.53
1.19
5.47
0.59
0.07
-4.54
-3.34
-2.73
-0.62
0.75
-0.09
0.01

> <PUBCHEM_SHAPE_SELFOVERLAP>
728.32

> <PUBCHEM_SHAPE_VOLUME>
208.5

> <PUBCHEM_COORDINATE_TYPE>
2
5
10

$$$$

