5131
  -OEChem-06261200322D

 54 54  0     1  0  0  0  0  0999 V2000
    5.1350   -0.3100    0.0000 S   0  0  0  0  0  0  0  0  0  0  0  0
    6.0010    3.1900    0.0000 O   0  0  0  0  0  0  0  0  0  0  0  0
    6.8671    2.6900    0.0000 O   0  0  0  0  0  0  0  0  0  0  0  0
    2.5369    6.1900    0.0000 O   0  0  0  0  0  0  0  0  0  0  0  0
    4.2690    6.1900    0.0000 O   0  0  0  0  0  0  0  0  0  0  0  0
    3.4030   -1.3100    0.0000 O   0  0  0  0  0  0  0  0  0  0  0  0
   10.3312    1.6900    0.0000 O   0  0  0  0  0  0  0  0  0  0  0  0
    9.4651    0.1900    0.0000 O   0  0  0  0  0  0  0  0  0  0  0  0
    5.1350    1.6900    0.0000 N   0  0  0  0  0  0  0  0  0  0  0  0
    7.7331    1.1900    0.0000 N   0  0  0  0  0  0  0  0  0  0  0  0
    2.5369    4.1900    0.0000 N   0  0  0  0  0  0  0  0  0  0  0  0
    4.2690   -5.8100    0.0000 N   0  0  0  0  0  0  0  0  0  0  0  0
    3.4030   -6.3100    0.0000 N   0  3  0  0  0  0  0  0  0  0  0  0
    2.5369   -6.8100    0.0000 N   0  5  0  0  0  0  0  0  0  0  0  0
    6.0010    1.1900    0.0000 C   0  0  3  0  0  0  0  0  0  0  0  0
    4.2690    4.1900    0.0000 C   0  0  0  0  0  0  0  0  0  0  0  0
    4.2690    3.1900    0.0000 C   0  0  0  0  0  0  0  0  0  0  0  0
    6.0010    0.1900    0.0000 C   0  0  0  0  0  0  0  0  0  0  0  0
    3.4030    4.6900    0.0000 C   0  0  3  0  0  0  0  0  0  0  0  0
    5.1350    2.6900    0.0000 C   0  0  0  0  0  0  0  0  0  0  0  0
    6.8671    1.6900    0.0000 C   0  0  0  0  0  0  0  0  0  0  0  0
    3.4030    5.6900    0.0000 C   0  0  0  0  0  0  0  0  0  0  0  0
    5.1350   -1.3100    0.0000 C   0  0  0  0  0  0  0  0  0  0  0  0
    8.5991    1.6900    0.0000 C   0  0  0  0  0  0  0  0  0  0  0  0
    4.2690   -1.8100    0.0000 C   0  0  0  0  0  0  0  0  0  0  0  0
    4.2690   -2.8100    0.0000 C   0  0  0  0  0  0  0  0  0  0  0  0
    3.4030   -3.3100    0.0000 C   0  0  0  0  0  0  0  0  0  0  0  0
    5.1350   -3.3100    0.0000 C   0  0  0  0  0  0  0  0  0  0  0  0
    9.4651    1.1900    0.0000 C   0  0  0  0  0  0  0  0  0  0  0  0
    3.4030   -4.3100    0.0000 C   0  0  0  0  0  0  0  0  0  0  0  0
    5.1350   -4.3100    0.0000 C   0  0  0  0  0  0  0  0  0  0  0  0
    4.2690   -4.8100    0.0000 C   0  0  0  0  0  0  0  0  0  0  0  0
    5.2649    0.7650    0.0000 H   0  0  0  0  0  0  0  0  0  0  0  0
    4.8796    4.0823    0.0000 H   0  0  0  0  0  0  0  0  0  0  0  0
    4.4810    4.7726    0.0000 H   0  0  0  0  0  0  0  0  0  0  0  0
    3.6584    3.2977    0.0000 H   0  0  0  0  0  0  0  0  0  0  0  0
    4.0569    2.6074    0.0000 H   0  0  0  0  0  0  0  0  0  0  0  0
    6.2131   -0.3926    0.0000 H   0  0  0  0  0  0  0  0  0  0  0  0
    6.6116    0.2977    0.0000 H   0  0  0  0  0  0  0  0  0  0  0  0
    3.4030    3.8400    0.0000 H   0  0  0  0  0  0  0  0  0  0  0  0
    4.5981    1.3800    0.0000 H   0  0  0  0  0  0  0  0  0  0  0  0
    7.7331    0.5700    0.0000 H   0  0  0  0  0  0  0  0  0  0  0  0
    5.3471   -1.8926    0.0000 H   0  0  0  0  0  0  0  0  0  0  0  0
    5.7456   -1.2023    0.0000 H   0  0  0  0  0  0  0  0  0  0  0  0
    2.0000    4.5000    0.0000 H   0  0  0  0  0  0  0  0  0  0  0  0
    2.5369    3.5700    0.0000 H   0  0  0  0  0  0  0  0  0  0  0  0
    8.9976    2.1650    0.0000 H   0  0  0  0  0  0  0  0  0  0  0  0
    8.2006    2.1650    0.0000 H   0  0  0  0  0  0  0  0  0  0  0  0
    2.8660   -3.0000    0.0000 H   0  0  0  0  0  0  0  0  0  0  0  0
    5.6720   -3.0000    0.0000 H   0  0  0  0  0  0  0  0  0  0  0  0
    2.5369    6.8100    0.0000 H   0  0  0  0  0  0  0  0  0  0  0  0
    2.8660   -4.6200    0.0000 H   0  0  0  0  0  0  0  0  0  0  0  0
    5.6720   -4.6200    0.0000 H   0  0  0  0  0  0  0  0  0  0  0  0
   10.8681    1.3800    0.0000 H   0  0  0  0  0  0  0  0  0  0  0  0
  1 18  1  0  0  0  0
  1 23  1  0  0  0  0
  2 20  2  0  0  0  0
  3 21  2  0  0  0  0
  4 22  1  0  0  0  0
  4 51  1  0  0  0  0
  5 22  2  0  0  0  0
  6 25  2  0  0  0  0
  7 29  1  0  0  0  0
  7 54  1  0  0  0  0
  8 29  2  0  0  0  0
  9 15  1  0  0  0  0
  9 20  1  0  0  0  0
  9 41  1  0  0  0  0
 10 21  1  0  0  0  0
 10 24  1  0  0  0  0
 10 42  1  0  0  0  0
 11 19  1  0  0  0  0
 11 45  1  0  0  0  0
 11 46  1  0  0  0  0
 12 13  2  0  0  0  0
 12 32  1  0  0  0  0
 13 14  2  0  0  0  0
 15 18  1  0  0  0  0
 15 21  1  0  0  0  0
 15 33  1  0  0  0  0
 16 17  1  0  0  0  0
 16 19  1  0  0  0  0
 16 34  1  0  0  0  0
 16 35  1  0  0  0  0
 17 20  1  0  0  0  0
 17 36  1  0  0  0  0
 17 37  1  0  0  0  0
 18 38  1  0  0  0  0
 18 39  1  0  0  0  0
 19 22  1  0  0  0  0
 19 40  1  0  0  0  0
 23 25  1  0  0  0  0
 23 43  1  0  0  0  0
 23 44  1  0  0  0  0
 24 29  1  0  0  0  0
 24 47  1  0  0  0  0
 24 48  1  0  0  0  0
 25 26  1  0  0  0  0
 26 27  2  0  0  0  0
 26 28  1  0  0  0  0
 27 30  1  0  0  0  0
 27 49  1  0  0  0  0
 28 31  2  0  0  0  0
 28 50  1  0  0  0  0
 30 32  2  0  0  0  0
 30 52  1  0  0  0  0
 31 32  1  0  0  0  0
 31 53  1  0  0  0  0
M  CHG  2  13   1  14  -1
M  END
> <PUBCHEM_COMPOUND_CID>
5131

> <PUBCHEM_COMPOUND_CANONICALIZED>
1

> <PUBCHEM_CACTVS_COMPLEXITY>
750

> <PUBCHEM_CACTVS_HBOND_ACCEPTOR>
11

> <PUBCHEM_CACTVS_HBOND_DONOR>
5

> <PUBCHEM_CACTVS_ROTATABLE_BOND>
14

> <PUBCHEM_CACTVS_SUBSKEYS>
AAADceB7uABAAAAAAAAAAAAAAAAAAAAAAAAwAAAAAAAAAAABAAAAHgQYCAAADCzF2ASwyILAAgiKAqXSWACCAAAkAhAIiIGIZMgKYDKglbGUYQBklgC4yYecn4KeCAAAAAAAAAAQAAAAAAAAAAAAAAAAAA==

> <PUBCHEM_IUPAC_OPENEYE_NAME>
2-amino-5-[[1-[[2-(4-azidophenyl)-2-oxo-ethyl]sulfanylmethyl]-2-(carboxymethylamino)-2-oxo-ethyl]amino]-5-oxo-pentanoic acid

> <PUBCHEM_IUPAC_CAS_NAME>
2-amino-5-[[3-[[2-(4-azidophenyl)-2-oxoethyl]thio]-1-(carboxymethylamino)-1-oxopropan-2-yl]amino]-5-oxopentanoic acid

> <PUBCHEM_IUPAC_NAME>
2-amino-5-[[3-[2-(4-azidophenyl)-2-oxoethyl]sulfanyl-1-(carboxymethylamino)-1-oxopropan-2-yl]amino]-5-oxopentanoic acid

> <PUBCHEM_IUPAC_SYSTEMATIC_NAME>
2-azanyl-5-[[3-[2-(4-azidophenyl)-2-oxidanylidene-ethyl]sulfanyl-1-(2-hydroxy-2-oxoethylamino)-1-oxidanylidene-propan-2-yl]amino]-5-oxidanylidene-pentanoic acid

> <PUBCHEM_IUPAC_TRADITIONAL_NAME>
2-amino-5-[[1-[[[2-(4-azidophenyl)-2-keto-ethyl]thio]methyl]-2-(carboxymethylamino)-2-keto-ethyl]amino]-5-keto-valeric acid

> <PUBCHEM_IUPAC_INCHI>
InChI=1S/C18H22N6O7S/c19-12(18(30)31)5-6-15(26)22-13(17(29)21-7-16(27)28)8-32-9-14(25)10-1-3-11(4-2-10)23-24-20/h1-4,12-13H,5-9,19H2,(H,21,29)(H,22,26)(H,27,28)(H,30,31)

> <PUBCHEM_IUPAC_INCHIKEY>
POHHFIIXXRDDJW-UHFFFAOYSA-N

> <PUBCHEM_XLOGP3_AA>
-1.8

> <PUBCHEM_EXACT_MASS>
466.127068

> <PUBCHEM_MOLECULAR_FORMULA>
C18H22N6O7S

> <PUBCHEM_MOLECULAR_WEIGHT>
466.46828

> <PUBCHEM_OPENEYE_CAN_SMILES>
C1=CC(=CC=C1C(=O)CSCC(C(=O)NCC(=O)O)NC(=O)CCC(C(=O)O)N)N=[N+]=[N-]

> <PUBCHEM_OPENEYE_ISO_SMILES>
C1=CC(=CC=C1C(=O)CSCC(C(=O)NCC(=O)O)NC(=O)CCC(C(=O)O)N)N=[N+]=[N-]

> <PUBCHEM_CACTVS_TPSA>
216

> <PUBCHEM_MONOISOTOPIC_WEIGHT>
466.127068

> <PUBCHEM_TOTAL_CHARGE>
0

> <PUBCHEM_HEAVY_ATOM_COUNT>
32

> <PUBCHEM_ATOM_DEF_STEREO_COUNT>
0

> <PUBCHEM_ATOM_UDEF_STEREO_COUNT>
2

> <PUBCHEM_BOND_DEF_STEREO_COUNT>
0

> <PUBCHEM_BOND_UDEF_STEREO_COUNT>
0

> <PUBCHEM_ISOTOPIC_ATOM_COUNT>
0

> <PUBCHEM_COMPONENT_COUNT>
1

> <PUBCHEM_CACTVS_TAUTO_COUNT>
8

> <PUBCHEM_COORDINATE_TYPE>
1
5
255

> <PUBCHEM_BONDANNOTATIONS>
15  33  3
19  40  3
26  27  8
26  28  8
27  30  8
28  31  8
30  32  8
31  32  8

$$$$

