12161
  -OEChem-06261206363D

 19 19  0     0  0  0  0  0  0999 V2000
   -1.7976   -0.0932    0.0309 C   0  0  0  0  0  0  0  0  0  0  0  0
    0.9717    0.2152   -0.1064 C   0  0  0  0  0  0  0  0  0  0  0  0
   -1.2358    1.1833    0.0558 C   0  0  0  0  0  0  0  0  0  0  0  0
   -0.9746   -1.2157   -0.0624 C   0  0  0  0  0  0  0  0  0  0  0  0
    0.1489    1.3375   -0.0130 C   0  0  0  0  0  0  0  0  0  0  0  0
    0.4100   -1.0614   -0.1310 C   0  0  0  0  0  0  0  0  0  0  0  0
   -3.2780   -0.2578    0.1051 C   0  0  0  0  0  0  0  0  0  0  0  0
    2.4156    0.3760   -0.1770 C   0  0  0  0  0  0  0  0  0  0  0  0
    3.3399   -0.4840    0.2979 C   0  0  0  0  0  0  0  0  0  0  0  0
   -1.8665    2.0655    0.1271 H   0  0  0  0  0  0  0  0  0  0  0  0
   -1.4009   -2.2151   -0.0873 H   0  0  0  0  0  0  0  0  0  0  0  0
    0.5696    2.3400    0.0087 H   0  0  0  0  0  0  0  0  0  0  0  0
    1.0216   -1.9559   -0.2174 H   0  0  0  0  0  0  0  0  0  0  0  0
   -3.7365    0.5486    0.6875 H   0  0  0  0  0  0  0  0  0  0  0  0
   -3.7075   -0.2516   -0.9016 H   0  0  0  0  0  0  0  0  0  0  0  0
   -3.5470   -1.1995    0.5956 H   0  0  0  0  0  0  0  0  0  0  0  0
    2.7711    1.2960   -0.6364 H   0  0  0  0  0  0  0  0  0  0  0  0
    4.3953   -0.2511    0.1991 H   0  0  0  0  0  0  0  0  0  0  0  0
    3.0776   -1.4106    0.7959 H   0  0  0  0  0  0  0  0  0  0  0  0
  1  3  2  0  0  0  0
  1  4  1  0  0  0  0
  1  7  1  0  0  0  0
  2  5  2  0  0  0  0
  2  6  1  0  0  0  0
  2  8  1  0  0  0  0
  3  5  1  0  0  0  0
  3 10  1  0  0  0  0
  4  6  2  0  0  0  0
  4 11  1  0  0  0  0
  5 12  1  0  0  0  0
  6 13  1  0  0  0  0
  7 14  1  0  0  0  0
  7 15  1  0  0  0  0
  7 16  1  0  0  0  0
  8  9  2  0  0  0  0
  8 17  1  0  0  0  0
  9 18  1  0  0  0  0
  9 19  1  0  0  0  0
M  END
> <PUBCHEM_COMPOUND_CID>
12161

> <PUBCHEM_CONFORMER_RMSD>
0.4

> <PUBCHEM_CONFORMER_DIVERSEORDER>
1

> <PUBCHEM_MMFF94_PARTIAL_CHARGES>
16
1 -0.14
10 0.15
11 0.15
12 0.15
13 0.15
17 0.15
18 0.15
19 0.15
2 0.03
3 -0.15
4 -0.15
5 -0.15
6 -0.15
7 0.14
8 -0.18
9 -0.3

> <PUBCHEM_EFFECTIVE_ROTOR_COUNT>
1

> <PUBCHEM_PHARMACOPHORE_FEATURES>
2
1 9 hydrophobe
6 1 2 3 4 5 6 rings

> <PUBCHEM_HEAVY_ATOM_COUNT>
9

> <PUBCHEM_ATOM_DEF_STEREO_COUNT>
0

> <PUBCHEM_ATOM_UDEF_STEREO_COUNT>
0

> <PUBCHEM_BOND_DEF_STEREO_COUNT>
0

> <PUBCHEM_BOND_UDEF_STEREO_COUNT>
0

> <PUBCHEM_ISOTOPIC_ATOM_COUNT>
0

> <PUBCHEM_COMPONENT_COUNT>
1

> <PUBCHEM_CACTVS_TAUTO_COUNT>
1

> <PUBCHEM_CONFORMER_ID>
00002F8100000001

> <PUBCHEM_MMFF94_ENERGY>
23.8525

> <PUBCHEM_FEATURE_SELFOVERLAP>
10.148

> <PUBCHEM_SHAPE_FINGERPRINT>
10219947 1 18409444774020041099
10857977 72 18408612443564873104
11062470 55 4895556281419724515
12032990 46 18411129238613499599
14325111 11 18410292536182070516
15310529 11 16702312251515422988
16945 1 18408035208544878903
193761 8 17689997164504323189
20871998 184 18042120972926612782
21040471 1 18337667641235843692
23235685 24 18409452487760179733
23402655 69 18193012619749722029
23552423 10 18055914282067322580
2748010 2 18121493828403684143
29004967 10 18342449335800798841
369184 2 15430038772730307374
5084963 1 18411418418719146480

> <PUBCHEM_SHAPE_MULTIPOLES>
185.22
4.46
1.32
0.64
0.94
0.11
0
-0.62
0.38
-0.17
-0.02
0.04
-0.01
-0.07

> <PUBCHEM_SHAPE_SELFOVERLAP>
379.998

> <PUBCHEM_SHAPE_VOLUME>
101.3

> <PUBCHEM_COORDINATE_TYPE>
2
5
10

$$$$

