7846934
  -OEChem-06241222472D

 48 51  0     0  0  0  0  0  0999 V2000
    4.9718   -0.9741    0.0000 S   0  0  0  0  0  0  0  0  0  0  0  0
    8.5390    0.0146    0.0000 O   0  0  0  0  0  0  0  0  0  0  0  0
   10.2710   -0.9854    0.0000 O   0  0  0  0  0  0  0  0  0  0  0  0
    7.6730    1.5146    0.0000 O   0  0  0  0  0  0  0  0  0  0  0  0
    4.1671    0.4198    0.0000 N   0  0  0  0  0  0  0  0  0  0  0  0
   14.6691    0.4938    0.0000 C   0  0  0  0  0  0  0  0  0  0  0  0
   14.6691    1.5355    0.0000 C   0  0  0  0  0  0  0  0  0  0  0  0
   13.7630   -0.0200    0.0000 C   0  0  0  0  0  0  0  0  0  0  0  0
   13.7630    2.0493    0.0000 C   0  0  0  0  0  0  0  0  0  0  0  0
   12.8691    0.5146    0.0000 C   0  0  0  0  0  0  0  0  0  0  0  0
   12.8691    1.5146    0.0000 C   0  0  0  0  0  0  0  0  0  0  0  0
   12.0031    0.0146    0.0000 C   0  0  0  0  0  0  0  0  0  0  0  0
   12.0031    2.0146    0.0000 C   0  0  0  0  0  0  0  0  0  0  0  0
   11.1370    0.5146    0.0000 C   0  0  0  0  0  0  0  0  0  0  0  0
   11.1370    1.5146    0.0000 C   0  0  0  0  0  0  0  0  0  0  0  0
   10.2710    0.0146    0.0000 C   0  0  0  0  0  0  0  0  0  0  0  0
    9.4050    0.5146    0.0000 C   0  0  0  0  0  0  0  0  0  0  0  0
    5.9409    0.5146    0.0000 C   0  0  0  0  0  0  0  0  0  0  0  0
    6.8069    0.0146    0.0000 C   0  0  0  0  0  0  0  0  0  0  0  0
    5.0749    0.0146    0.0000 C   0  0  0  0  0  0  0  0  0  0  0  0
    7.6730    0.5146    0.0000 C   0  0  0  0  0  0  0  0  0  0  0  0
    4.0000   -1.1833    0.0000 C   0  0  0  0  0  0  0  0  0  0  0  0
    3.5000   -0.3173    0.0000 C   0  0  0  0  0  0  0  0  0  0  0  0
    3.5000   -2.0493    0.0000 C   0  0  0  0  0  0  0  0  0  0  0  0
    2.5000   -0.3173    0.0000 C   0  0  0  0  0  0  0  0  0  0  0  0
    2.5000   -2.0493    0.0000 C   0  0  0  0  0  0  0  0  0  0  0  0
    2.0000   -1.1833    0.0000 C   0  0  0  0  0  0  0  0  0  0  0  0
   14.8782   -0.0899    0.0000 H   0  0  0  0  0  0  0  0  0  0  0  0
   15.2800    0.5999    0.0000 H   0  0  0  0  0  0  0  0  0  0  0  0
   15.2800    1.4294    0.0000 H   0  0  0  0  0  0  0  0  0  0  0  0
   14.8782    2.1192    0.0000 H   0  0  0  0  0  0  0  0  0  0  0  0
   13.3584   -0.4898    0.0000 H   0  0  0  0  0  0  0  0  0  0  0  0
   14.1567   -0.4990    0.0000 H   0  0  0  0  0  0  0  0  0  0  0  0
   14.1567    2.5283    0.0000 H   0  0  0  0  0  0  0  0  0  0  0  0
   13.3584    2.5191    0.0000 H   0  0  0  0  0  0  0  0  0  0  0  0
   12.0031   -0.6054    0.0000 H   0  0  0  0  0  0  0  0  0  0  0  0
   12.0031    2.6346    0.0000 H   0  0  0  0  0  0  0  0  0  0  0  0
   10.6001    1.8246    0.0000 H   0  0  0  0  0  0  0  0  0  0  0  0
    9.8035    0.9896    0.0000 H   0  0  0  0  0  0  0  0  0  0  0  0
    9.0065    0.9896    0.0000 H   0  0  0  0  0  0  0  0  0  0  0  0
    6.3394    0.9896    0.0000 H   0  0  0  0  0  0  0  0  0  0  0  0
    5.5424    0.9896    0.0000 H   0  0  0  0  0  0  0  0  0  0  0  0
    6.4084   -0.4603    0.0000 H   0  0  0  0  0  0  0  0  0  0  0  0
    7.2054   -0.4603    0.0000 H   0  0  0  0  0  0  0  0  0  0  0  0
    3.8100   -2.5862    0.0000 H   0  0  0  0  0  0  0  0  0  0  0  0
    2.1900    0.2197    0.0000 H   0  0  0  0  0  0  0  0  0  0  0  0
    2.1900   -2.5862    0.0000 H   0  0  0  0  0  0  0  0  0  0  0  0
    1.3800   -1.1833    0.0000 H   0  0  0  0  0  0  0  0  0  0  0  0
  1 20  1  0  0  0  0
  1 22  1  0  0  0  0
  2 17  1  0  0  0  0
  2 21  1  0  0  0  0
  3 16  2  0  0  0  0
  4 21  2  0  0  0  0
  5 20  2  0  0  0  0
  5 23  1  0  0  0  0
  6  7  1  0  0  0  0
  6  8  1  0  0  0  0
  6 28  1  0  0  0  0
  6 29  1  0  0  0  0
  7  9  1  0  0  0  0
  7 30  1  0  0  0  0
  7 31  1  0  0  0  0
  8 10  1  0  0  0  0
  8 32  1  0  0  0  0
  8 33  1  0  0  0  0
  9 11  1  0  0  0  0
  9 34  1  0  0  0  0
  9 35  1  0  0  0  0
 10 11  2  0  0  0  0
 10 12  1  0  0  0  0
 11 13  1  0  0  0  0
 12 14  2  0  0  0  0
 12 36  1  0  0  0  0
 13 15  2  0  0  0  0
 13 37  1  0  0  0  0
 14 15  1  0  0  0  0
 14 16  1  0  0  0  0
 15 38  1  0  0  0  0
 16 17  1  0  0  0  0
 17 39  1  0  0  0  0
 17 40  1  0  0  0  0
 18 19  1  0  0  0  0
 18 20  1  0  0  0  0
 18 41  1  0  0  0  0
 18 42  1  0  0  0  0
 19 21  1  0  0  0  0
 19 43  1  0  0  0  0
 19 44  1  0  0  0  0
 22 23  1  0  0  0  0
 22 24  2  0  0  0  0
 23 25  2  0  0  0  0
 24 26  1  0  0  0  0
 24 45  1  0  0  0  0
 25 27  1  0  0  0  0
 25 46  1  0  0  0  0
 26 27  2  0  0  0  0
 26 47  1  0  0  0  0
 27 48  1  0  0  0  0
M  END
> <PUBCHEM_COMPOUND_CID>
7846934

> <PUBCHEM_COMPOUND_CANONICALIZED>
1

> <PUBCHEM_CACTVS_COMPLEXITY>
540

> <PUBCHEM_CACTVS_HBOND_ACCEPTOR>
5

> <PUBCHEM_CACTVS_HBOND_DONOR>
0

> <PUBCHEM_CACTVS_ROTATABLE_BOND>
7

> <PUBCHEM_CACTVS_SUBSKEYS>
AAADceB6MABAAAAAAAAAAAAAAAAAAWAAAAAwYMAAAAAAAFjB9AAAHgQAAAAADAyh3gIwybIIFAisA6TyTAKD8KBlCjhImD1wZNgIILLglZWGIQhkwAHoyYe8yPCOwAACAAAQAQCAAAQAACACAAAAAAAAAA==

> <PUBCHEM_IUPAC_OPENEYE_NAME>
(2-oxo-2-tetralin-6-yl-ethyl) 3-(1,3-benzothiazol-2-yl)propanoate

> <PUBCHEM_IUPAC_CAS_NAME>
3-(1,3-benzothiazol-2-yl)propanoic acid [2-oxo-2-(5,6,7,8-tetrahydronaphthalen-2-yl)ethyl] ester

> <PUBCHEM_IUPAC_NAME>
[2-oxo-2-(5,6,7,8-tetrahydronaphthalen-2-yl)ethyl] 3-(1,3-benzothiazol-2-yl)propanoate

> <PUBCHEM_IUPAC_SYSTEMATIC_NAME>
[2-oxidanylidene-2-(5,6,7,8-tetrahydronaphthalen-2-yl)ethyl] 3-(1,3-benzothiazol-2-yl)propanoate

> <PUBCHEM_IUPAC_TRADITIONAL_NAME>
3-(1,3-benzothiazol-2-yl)propionic acid (2-keto-2-tetralin-6-yl-ethyl) ester

> <PUBCHEM_IUPAC_INCHI>
InChI=1S/C22H21NO3S/c24-19(17-10-9-15-5-1-2-6-16(15)13-17)14-26-22(25)12-11-21-23-18-7-3-4-8-20(18)27-21/h3-4,7-10,13H,1-2,5-6,11-12,14H2

> <PUBCHEM_IUPAC_INCHIKEY>
OIBZJFWSODUYTL-UHFFFAOYSA-N

> <PUBCHEM_XLOGP3_AA>
5.3

> <PUBCHEM_EXACT_MASS>
379.124215

> <PUBCHEM_MOLECULAR_FORMULA>
C22H21NO3S

> <PUBCHEM_MOLECULAR_WEIGHT>
379.47204

> <PUBCHEM_OPENEYE_CAN_SMILES>
C1CCC2=C(C1)C=CC(=C2)C(=O)COC(=O)CCC3=NC4=CC=CC=C4S3

> <PUBCHEM_OPENEYE_ISO_SMILES>
C1CCC2=C(C1)C=CC(=C2)C(=O)COC(=O)CCC3=NC4=CC=CC=C4S3

> <PUBCHEM_CACTVS_TPSA>
84.5

> <PUBCHEM_MONOISOTOPIC_WEIGHT>
379.124215

> <PUBCHEM_TOTAL_CHARGE>
0

> <PUBCHEM_HEAVY_ATOM_COUNT>
27

> <PUBCHEM_ATOM_DEF_STEREO_COUNT>
0

> <PUBCHEM_ATOM_UDEF_STEREO_COUNT>
0

> <PUBCHEM_BOND_DEF_STEREO_COUNT>
0

> <PUBCHEM_BOND_UDEF_STEREO_COUNT>
0

> <PUBCHEM_ISOTOPIC_ATOM_COUNT>
0

> <PUBCHEM_COMPONENT_COUNT>
1

> <PUBCHEM_CACTVS_TAUTO_COUNT>
18

> <PUBCHEM_COORDINATE_TYPE>
1
5
255

> <PUBCHEM_BONDANNOTATIONS>
1  20  8
1  22  8
10  11  8
10  12  8
11  13  8
12  14  8
13  15  8
14  15  8
22  23  8
22  24  8
23  25  8
24  26  8
25  27  8
26  27  8
5  20  8
5  23  8

$$$$

