17395291
  -OEChem-06241222493D

 43 44  0     0  0  0  0  0  0999 V2000
    3.5511   -1.0736    1.4673 O   0  0  0  0  0  0  0  0  0  0  0  0
   -2.6844   -1.8353   -0.4127 O   0  0  0  0  0  0  0  0  0  0  0  0
   -1.1179    0.3922    0.2582 N   0  0  0  0  0  0  0  0  0  0  0  0
    1.7401    0.0580    0.5546 N   0  0  0  0  0  0  0  0  0  0  0  0
    3.9149    0.3397   -0.3116 N   0  0  0  0  0  0  0  0  0  0  0  0
   -0.2125    1.5060   -0.0316 C   0  0  0  0  0  0  0  0  0  0  0  0
   -0.5486   -0.8318    0.8295 C   0  0  0  0  0  0  0  0  0  0  0  0
    1.1743    0.9936   -0.4224 C   0  0  0  0  0  0  0  0  0  0  0  0
    0.7963   -0.5447    1.4928 C   0  0  0  0  0  0  0  0  0  0  0  0
   -2.4923    0.5087    0.0633 C   0  0  0  0  0  0  0  0  0  0  0  0
    3.1029   -0.2815    0.6328 C   0  0  0  0  0  0  0  0  0  0  0  0
   -3.2595   -0.6077   -0.2700 C   0  0  0  0  0  0  0  0  0  0  0  0
    5.3387    0.1015   -0.3819 C   0  0  0  0  0  0  0  0  0  0  0  0
   -3.1006    1.7559    0.2045 C   0  0  0  0  0  0  0  0  0  0  0  0
   -4.6349   -0.4766   -0.4619 C   0  0  0  0  0  0  0  0  0  0  0  0
   -4.4760    1.8870    0.0125 C   0  0  0  0  0  0  0  0  0  0  0  0
    5.6372   -1.0944   -1.2776 C   0  0  0  0  0  0  0  0  0  0  0  0
    6.0609    1.3505   -0.8701 C   0  0  0  0  0  0  0  0  0  0  0  0
   -5.2432    0.7708   -0.3208 C   0  0  0  0  0  0  0  0  0  0  0  0
   -3.5467   -2.9182   -0.7547 C   0  0  0  0  0  0  0  0  0  0  0  0
   -0.5884    2.1175   -0.8610 H   0  0  0  0  0  0  0  0  0  0  0  0
   -0.1360    2.1484    0.8543 H   0  0  0  0  0  0  0  0  0  0  0  0
   -1.2120   -1.2600    1.5907 H   0  0  0  0  0  0  0  0  0  0  0  0
   -0.3820   -1.5699    0.0359 H   0  0  0  0  0  0  0  0  0  0  0  0
    1.8437    1.8515   -0.5420 H   0  0  0  0  0  0  0  0  0  0  0  0
    1.1291    0.4621   -1.3806 H   0  0  0  0  0  0  0  0  0  0  0  0
    0.6744    0.1627    2.3222 H   0  0  0  0  0  0  0  0  0  0  0  0
    1.2111   -1.4681    1.9101 H   0  0  0  0  0  0  0  0  0  0  0  0
    3.4991    0.8651   -1.0713 H   0  0  0  0  0  0  0  0  0  0  0  0
    5.6996   -0.1283    0.6279 H   0  0  0  0  0  0  0  0  0  0  0  0
   -2.5364    2.6427    0.4796 H   0  0  0  0  0  0  0  0  0  0  0  0
   -5.2950   -1.2967   -0.7217 H   0  0  0  0  0  0  0  0  0  0  0  0
   -4.9506    2.8573    0.1262 H   0  0  0  0  0  0  0  0  0  0  0  0
    6.7133   -1.2923   -1.3209 H   0  0  0  0  0  0  0  0  0  0  0  0
    5.1429   -1.9977   -0.9038 H   0  0  0  0  0  0  0  0  0  0  0  0
    5.2798   -0.9236   -2.2993 H   0  0  0  0  0  0  0  0  0  0  0  0
    7.1442    1.1931   -0.8935 H   0  0  0  0  0  0  0  0  0  0  0  0
    5.8560    2.2002   -0.2096 H   0  0  0  0  0  0  0  0  0  0  0  0
    5.7350    1.6309   -1.8780 H   0  0  0  0  0  0  0  0  0  0  0  0
   -6.3142    0.8739   -0.4690 H   0  0  0  0  0  0  0  0  0  0  0  0
   -4.2862   -3.1096    0.0303 H   0  0  0  0  0  0  0  0  0  0  0  0
   -4.0075   -2.7734   -1.7378 H   0  0  0  0  0  0  0  0  0  0  0  0
   -2.9225   -3.8152   -0.8269 H   0  0  0  0  0  0  0  0  0  0  0  0
  1 11  2  0  0  0  0
  2 12  1  0  0  0  0
  2 20  1  0  0  0  0
  3  6  1  0  0  0  0
  3  7  1  0  0  0  0
  3 10  1  0  0  0  0
  4  8  1  0  0  0  0
  4  9  1  0  0  0  0
  4 11  1  0  0  0  0
  5 11  1  0  0  0  0
  5 13  1  0  0  0  0
  5 29  1  0  0  0  0
  6  8  1  0  0  0  0
  6 21  1  0  0  0  0
  6 22  1  0  0  0  0
  7  9  1  0  0  0  0
  7 23  1  0  0  0  0
  7 24  1  0  0  0  0
  8 25  1  0  0  0  0
  8 26  1  0  0  0  0
  9 27  1  0  0  0  0
  9 28  1  0  0  0  0
 10 12  1  0  0  0  0
 10 14  2  0  0  0  0
 12 15  2  0  0  0  0
 13 17  1  0  0  0  0
 13 18  1  0  0  0  0
 13 30  1  0  0  0  0
 14 16  1  0  0  0  0
 14 31  1  0  0  0  0
 15 19  1  0  0  0  0
 15 32  1  0  0  0  0
 16 19  2  0  0  0  0
 16 33  1  0  0  0  0
 17 34  1  0  0  0  0
 17 35  1  0  0  0  0
 17 36  1  0  0  0  0
 18 37  1  0  0  0  0
 18 38  1  0  0  0  0
 18 39  1  0  0  0  0
 19 40  1  0  0  0  0
 20 41  1  0  0  0  0
 20 42  1  0  0  0  0
 20 43  1  0  0  0  0
M  END
> <PUBCHEM_COMPOUND_CID>
17395291

> <PUBCHEM_CONFORMER_RMSD>
0.8

> <PUBCHEM_CONFORMER_DIVERSEORDER>
1
19
8
15
6
23
13
22
25
3
12
16
21
11
24
18
9
20
5
10
4
2
7
14
17

> <PUBCHEM_MMFF94_PARTIAL_CHARGES>
23
1 -0.57
10 0.1
11 0.69
12 0.08
13 0.3
14 -0.15
15 -0.15
16 -0.15
19 -0.15
2 -0.36
20 0.28
29 0.37
3 -0.84
31 0.15
32 0.15
33 0.15
4 -0.66
40 0.15
5 -0.73
6 0.37
7 0.37
8 0.3
9 0.3

> <PUBCHEM_EFFECTIVE_ROTOR_COUNT>
6.2

> <PUBCHEM_PHARMACOPHORE_FEATURES>
7
1 1 acceptor
1 2 acceptor
1 3 cation
1 5 donor
3 13 17 18 hydrophobe
6 10 12 14 15 16 19 rings
6 3 4 6 7 8 9 rings

> <PUBCHEM_HEAVY_ATOM_COUNT>
20

> <PUBCHEM_ATOM_DEF_STEREO_COUNT>
0

> <PUBCHEM_ATOM_UDEF_STEREO_COUNT>
0

> <PUBCHEM_BOND_DEF_STEREO_COUNT>
0

> <PUBCHEM_BOND_UDEF_STEREO_COUNT>
0

> <PUBCHEM_ISOTOPIC_ATOM_COUNT>
0

> <PUBCHEM_COMPONENT_COUNT>
1

> <PUBCHEM_CACTVS_TAUTO_COUNT>
2

> <PUBCHEM_CONFORMER_ID>
01096E5B00000001

> <PUBCHEM_MMFF94_ENERGY>
68.4182

> <PUBCHEM_FEATURE_SELFOVERLAP>
35.52

> <PUBCHEM_SHAPE_FINGERPRINT>
10366900 7 17095246951090324217
11128504 68 18202281412044121324
11315181 36 16950563281037882680
11796584 16 18040431127245924382
12236239 1 18130788970718785188
12390115 104 17969498394001850393
12616971 3 17560815367490304082
12788726 201 18339923843544514912
12821665 9 18197211443501018420
13288520 33 18186801374883351781
13760787 19 18413111675242307922
13760787 5 17274831284856354978
13914758 101 4678543421436490091
14251757 5 18335138717458536097
14528608 73 18272649035330507004
14573314 32 17749389303755652892
15042514 8 18336547093934730079
15183329 4 18337387240460016486
15415430 112 18410859854196372763
17834072 33 18411699868385112708
17844677 252 16515404071282483112
17870717 6 18114176441261339927
200 152 14634870872347797049
20325693 3 18333733524829461975
20645477 70 15697729211145244352
20681677 155 18412544323179328481
20871999 31 18410294670686039994
21267235 1 18411415073852167923
2215653 11 17603589655059741101
2297311 6 18113334211286472729
23035841 295 18408039632424503770
23175994 123 16515407352515924545
23379529 103 17975129838354895215
23402539 116 18342739611413483820
23402655 69 18272654562515424128
23536379 177 18260826033925594844
23557571 272 17821722870785686825
23559900 14 18114188501308311928
2916195 48 11959726049771026158
300161 21 18060144245096685440
3004659 81 18337106878333691502
335352 9 18408609137626946093
34797466 226 17895192165108422280
4214541 1 18408041814331498957
4340502 62 14261349172096866032
465052 167 14490191605417614284
542803 24 18060700615007209088
543368 44 18060136509570662588
90127 26 16081092584316436410

> <PUBCHEM_SHAPE_MULTIPOLES>
384.91
13.75
2.06
1.08
13.26
0.84
-0.21
-0.98
4.8
-2.41
0.45
0.99
0.32
-0.81

> <PUBCHEM_SHAPE_SELFOVERLAP>
790.648

> <PUBCHEM_SHAPE_VOLUME>
220.7

> <PUBCHEM_COORDINATE_TYPE>
2
5
10

$$$$

