47205532
  -OEChem-06241222593D

 36 37  0     0  0  0  0  0  0999 V2000
    3.3602    0.7539    1.5704 O   0  0  0  0  0  0  0  0  0  0  0  0
    0.6594   -0.7433   -0.4355 O   0  0  0  0  0  0  0  0  0  0  0  0
    2.7856    0.8857   -0.6839 N   0  0  0  0  0  0  0  0  0  0  0  0
   -0.8419    1.0582   -0.2382 N   0  0  0  0  0  0  0  0  0  0  0  0
    4.8974   -0.0849   -0.0006 C   0  0  0  0  0  0  0  0  0  0  0  0
    5.2551   -1.4141    0.5969 C   0  0  0  0  0  0  0  0  0  0  0  0
    4.8712   -1.3211   -0.8508 C   0  0  0  0  0  0  0  0  0  0  0  0
    3.6078    0.5600    0.3860 C   0  0  0  0  0  0  0  0  0  0  0  0
    1.5034    1.5095   -0.5360 C   0  0  0  0  0  0  0  0  0  0  0  0
    0.4165    0.4585   -0.4000 C   0  0  0  0  0  0  0  0  0  0  0  0
   -2.0818    0.4336   -0.0816 C   0  0  0  0  0  0  0  0  0  0  0  0
   -3.2472    1.1851    0.0688 C   0  0  0  0  0  0  0  0  0  0  0  0
   -2.1451   -0.9599   -0.0768 C   0  0  0  0  0  0  0  0  0  0  0  0
   -3.3738   -1.6018    0.0781 C   0  0  0  0  0  0  0  0  0  0  0  0
   -4.4759    0.5433    0.2239 C   0  0  0  0  0  0  0  0  0  0  0  0
   -4.5392   -0.8502    0.2285 C   0  0  0  0  0  0  0  0  0  0  0  0
   -3.2096    2.6789    0.0676 C   0  0  0  0  0  0  0  0  0  0  0  0
   -3.4419   -3.0915    0.0831 C   0  0  0  0  0  0  0  0  0  0  0  0
    5.7176    0.6084   -0.1570 H   0  0  0  0  0  0  0  0  0  0  0  0
    3.9174   -1.7450   -1.1404 H   0  0  0  0  0  0  0  0  0  0  0  0
    5.6547   -1.4411   -1.5892 H   0  0  0  0  0  0  0  0  0  0  0  0
    6.2965   -1.5983    0.8313 H   0  0  0  0  0  0  0  0  0  0  0  0
    4.5540   -1.8893    1.2721 H   0  0  0  0  0  0  0  0  0  0  0  0
    3.0981    0.6694   -1.6261 H   0  0  0  0  0  0  0  0  0  0  0  0
    1.5021    2.1513    0.3509 H   0  0  0  0  0  0  0  0  0  0  0  0
    1.3151    2.1147   -1.4279 H   0  0  0  0  0  0  0  0  0  0  0  0
   -0.8507    2.0747   -0.2349 H   0  0  0  0  0  0  0  0  0  0  0  0
   -1.2861   -1.6054   -0.1893 H   0  0  0  0  0  0  0  0  0  0  0  0
   -5.3937    1.1132    0.3420 H   0  0  0  0  0  0  0  0  0  0  0  0
   -5.5036   -1.3366    0.3487 H   0  0  0  0  0  0  0  0  0  0  0  0
   -4.2086    3.1101    0.1965 H   0  0  0  0  0  0  0  0  0  0  0  0
   -2.8176    3.0539   -0.8837 H   0  0  0  0  0  0  0  0  0  0  0  0
   -2.5905    3.0496    0.8914 H   0  0  0  0  0  0  0  0  0  0  0  0
   -4.4126   -3.4519    0.4402 H   0  0  0  0  0  0  0  0  0  0  0  0
   -2.6775   -3.5097    0.7467 H   0  0  0  0  0  0  0  0  0  0  0  0
   -3.2859   -3.4789   -0.9288 H   0  0  0  0  0  0  0  0  0  0  0  0
  1  8  2  0  0  0  0
  2 10  2  0  0  0  0
  3  8  1  0  0  0  0
  3  9  1  0  0  0  0
  3 24  1  0  0  0  0
  4 10  1  0  0  0  0
  4 11  1  0  0  0  0
  4 27  1  0  0  0  0
  5  6  1  0  0  0  0
  5  7  1  0  0  0  0
  5  8  1  0  0  0  0
  5 19  1  0  0  0  0
  6  7  1  0  0  0  0
  6 22  1  0  0  0  0
  6 23  1  0  0  0  0
  7 20  1  0  0  0  0
  7 21  1  0  0  0  0
  9 10  1  0  0  0  0
  9 25  1  0  0  0  0
  9 26  1  0  0  0  0
 11 12  2  0  0  0  0
 11 13  1  0  0  0  0
 12 15  1  0  0  0  0
 12 17  1  0  0  0  0
 13 14  2  0  0  0  0
 13 28  1  0  0  0  0
 14 16  1  0  0  0  0
 14 18  1  0  0  0  0
 15 16  2  0  0  0  0
 15 29  1  0  0  0  0
 16 30  1  0  0  0  0
 17 31  1  0  0  0  0
 17 32  1  0  0  0  0
 17 33  1  0  0  0  0
 18 34  1  0  0  0  0
 18 35  1  0  0  0  0
 18 36  1  0  0  0  0
M  END
> <PUBCHEM_COMPOUND_CID>
47205532

> <PUBCHEM_CONFORMER_RMSD>
0.8

> <PUBCHEM_CONFORMER_DIVERSEORDER>
1
50
31
24
41
12
3
44
35
5
36
51
23
29
55
57
19
37
32
27
22
53
30
59
56
38
15
26
48
2
16
17
13
18
10
42
4
47
9
40
20
49
7
43
58
14
34
25
52
11
28
6
46
8
39
54
21
33
45

> <PUBCHEM_MMFF94_PARTIAL_CHARGES>
28
1 -0.57
10 0.57
11 0.12
12 -0.14
13 -0.15
14 -0.14
15 -0.15
16 -0.15
17 0.14
18 0.14
19 0.1
2 -0.57
20 0.1
21 0.1
22 0.1
23 0.1
24 0.37
27 0.37
28 0.15
29 0.15
3 -0.73
30 0.15
4 -0.55
5 -0.1
6 -0.2
7 -0.2
8 0.63
9 0.36

> <PUBCHEM_EFFECTIVE_ROTOR_COUNT>
6.6

> <PUBCHEM_PHARMACOPHORE_FEATURES>
5
1 1 acceptor
1 2 acceptor
1 3 donor
1 4 donor
6 11 12 13 14 15 16 rings

> <PUBCHEM_HEAVY_ATOM_COUNT>
18

> <PUBCHEM_ATOM_DEF_STEREO_COUNT>
0

> <PUBCHEM_ATOM_UDEF_STEREO_COUNT>
0

> <PUBCHEM_BOND_DEF_STEREO_COUNT>
0

> <PUBCHEM_BOND_UDEF_STEREO_COUNT>
0

> <PUBCHEM_ISOTOPIC_ATOM_COUNT>
0

> <PUBCHEM_COMPONENT_COUNT>
1

> <PUBCHEM_CACTVS_TAUTO_COUNT>
4

> <PUBCHEM_CONFORMER_ID>
02D04C9C00000001

> <PUBCHEM_MMFF94_ENERGY>
47.1638

> <PUBCHEM_FEATURE_SELFOVERLAP>
25.371

> <PUBCHEM_SHAPE_FINGERPRINT>
11128504 68 16774069675169654478
11405975 8 18260827098655530384
11545043 162 18260832613583286632
11796584 16 18336545027591055118
12107183 9 17909551997367645448
12403259 226 18335705975338235745
12555020 224 18341341032902781255
13167823 11 18343864407350174946
13583140 156 17676778586738998228
13675066 3 18113623378422880020
14341114 176 18408880728797445864
14420673 8 18266173014774987038
14528608 73 9079108960755611818
15042514 8 18340481159207445787
15196674 1 18411699863984487910
15256400 18 18409445912144423534
17492 89 18197495125690089635
17804303 29 18410009927128460341
17834072 33 18201151071273301500
17844677 252 18410287013081364504
17857418 61 18413675712033600950
1813 80 17203324533438343894
20281475 54 18272370854329929508
21033648 29 17458642136877084880
21065198 57 18407761430323973784
21065199 12 18260835852083768128
21065201 7 18410862066035919696
21267235 1 18342729703055937043
22950370 63 18201998859125603996
23402539 116 18335426768557704469
23557571 272 18187358861364364789
23559900 14 18408608032728821280
26918003 58 18113620105552162568
2916195 48 10087624980600242318
312423 11 17988065700050298725
351380 3 17704072897535671274
42 15 18408040719367766796
4214541 1 18411136965169981373
5104073 3 18334572408587248584
559249 180 18272374225731433603
573450 72 18342460347991613065
5924683 9 17895764993534117103
633830 44 16917062252861843924
77779 3 18410855451986814996
9709674 26 18199463260167356138

> <PUBCHEM_SHAPE_MULTIPOLES>
348.73
12.35
2.46
0.84
10.6
0.75
-0.13
3.97
-1.26
-2.85
0.01
0.76
-0.04
0.14

> <PUBCHEM_SHAPE_SELFOVERLAP>
721.466

> <PUBCHEM_SHAPE_VOLUME>
200.7

> <PUBCHEM_COORDINATE_TYPE>
2
5
10

$$$$

