12312
  -OEChem-06261206483D

 10  9  0     0  0  0  0  0  0999 V2000
   -2.1722    0.8353   -0.0029 Cl  0  0  0  0  0  0  0  0  0  0  0  0
    2.1069    0.7928    0.0036 C   0  0  0  0  0  0  0  0  0  0  0  0
    1.3188   -0.4739   -0.0056 C   0  0  0  0  0  0  0  0  0  0  0  0
    0.0190   -0.5419   -0.0002 C   0  0  0  0  0  0  0  0  0  0  0  0
   -1.2726   -0.6124    0.0051 C   0  0  0  0  0  0  0  0  0  0  0  0
    2.7513    0.8258    0.8874 H   0  0  0  0  0  0  0  0  0  0  0  0
    2.7416    0.8446   -0.8862 H   0  0  0  0  0  0  0  0  0  0  0  0
    1.4608    1.6765    0.0165 H   0  0  0  0  0  0  0  0  0  0  0  0
    1.8829   -1.4020   -0.0182 H   0  0  0  0  0  0  0  0  0  0  0  0
   -1.8565   -1.5217    0.0156 H   0  0  0  0  0  0  0  0  0  0  0  0
  1  5  1  0  0  0  0
  2  3  1  0  0  0  0
  2  6  1  0  0  0  0
  2  7  1  0  0  0  0
  2  8  1  0  0  0  0
  3  4  2  0  0  0  0
  3  9  1  0  0  0  0
  4  5  2  0  0  0  0
  5 10  1  0  0  0  0
M  END
> <PUBCHEM_COMPOUND_CID>
12312

> <PUBCHEM_CONFORMER_RMSD>
0.4

> <PUBCHEM_CONFORMER_DIVERSEORDER>
1

> <PUBCHEM_MMFF94_PARTIAL_CHARGES>
7
1 -0.14
10 0.15
2 0.14
3 -0.22
4 -0.13
5 0.05
9 0.15

> <PUBCHEM_EFFECTIVE_ROTOR_COUNT>
0

> <PUBCHEM_PHARMACOPHORE_FEATURES>
1
1 2 hydrophobe

> <PUBCHEM_HEAVY_ATOM_COUNT>
5

> <PUBCHEM_ATOM_DEF_STEREO_COUNT>
0

> <PUBCHEM_ATOM_UDEF_STEREO_COUNT>
0

> <PUBCHEM_BOND_DEF_STEREO_COUNT>
0

> <PUBCHEM_BOND_UDEF_STEREO_COUNT>
0

> <PUBCHEM_ISOTOPIC_ATOM_COUNT>
0

> <PUBCHEM_COMPONENT_COUNT>
1

> <PUBCHEM_CACTVS_TAUTO_COUNT>
1

> <PUBCHEM_CONFORMER_ID>
0000301800000001

> <PUBCHEM_MMFF94_ENERGY>
0.538

> <PUBCHEM_FEATURE_SELFOVERLAP>
5.074

> <PUBCHEM_SHAPE_FINGERPRINT>
14390081 3 18334297543533752144
20096714 4 18411136947995049106
21040471 1 18410855455907164454
23552449 1 18193558856998391651
24536 1 18339372906387298838
29004967 10 11743844655270668332
5460574 1 9295292741832286627

> <PUBCHEM_SHAPE_MULTIPOLES>
104.77
3.17
1.07
0.62
0.12
0.12
0
1.15
0
0.06
0
0.02
0.01
0

> <PUBCHEM_SHAPE_SELFOVERLAP>
177.829

> <PUBCHEM_SHAPE_VOLUME>
69.5

> <PUBCHEM_COORDINATE_TYPE>
2
5
10

$$$$

