17396485
  -OEChem-06241222563D

 43 45  0     1  0  0  0  0  0999 V2000
   -1.8439    0.7465    1.9070 O   0  0  0  0  0  0  0  0  0  0  0  0
   -4.0501   -1.5884   -1.3907 O   0  0  0  0  0  0  0  0  0  0  0  0
   -0.6864   -1.4292   -1.3999 O   0  0  0  0  0  0  0  0  0  0  0  0
    3.5656    1.7781   -1.3702 O   0  0  0  0  0  0  0  0  0  0  0  0
    5.0146    1.7683    0.5555 O   0  0  0  0  0  0  0  0  0  0  0  0
   -4.2579    0.5887   -0.5833 N   0  0  0  0  0  0  0  0  0  0  0  0
   -2.7321   -0.7434    0.3467 N   0  0  0  0  0  0  0  0  0  0  0  0
    0.3941   -2.4970    0.3590 N   0  0  0  0  0  0  0  0  0  0  0  0
   -3.6503    1.4343    0.4208 C   0  0  2  0  0  0  0  0  0  0  0  0
   -2.9556    2.6317   -0.2138 C   0  0  0  0  0  0  0  0  0  0  0  0
   -2.6217    0.4623    1.0047 C   0  0  0  0  0  0  0  0  0  0  0  0
   -4.6626    1.8434    1.4826 C   0  0  0  0  0  0  0  0  0  0  0  0
   -3.7113   -0.6947   -0.6258 C   0  0  0  0  0  0  0  0  0  0  0  0
   -1.9170   -1.9096    0.6228 C   0  0  0  0  0  0  0  0  0  0  0  0
   -2.0277    2.2066   -1.3374 C   0  0  0  0  0  0  0  0  0  0  0  0
   -0.6884   -1.8903   -0.2613 C   0  0  0  0  0  0  0  0  0  0  0  0
    1.6820   -2.6619   -0.2762 C   0  0  0  0  0  0  0  0  0  0  0  0
    2.5875   -1.4915   -0.0226 C   0  0  0  0  0  0  0  0  0  0  0  0
    2.5830   -0.4074   -0.9035 C   0  0  0  0  0  0  0  0  0  0  0  0
    3.4324    0.6447   -0.6287 C   0  0  0  0  0  0  0  0  0  0  0  0
    3.4330   -1.4971    1.1008 C   0  0  0  0  0  0  0  0  0  0  0  0
    4.2599    0.6391    0.4708 C   0  0  0  0  0  0  0  0  0  0  0  0
    4.2836   -0.4188    1.3562 C   0  0  0  0  0  0  0  0  0  0  0  0
    4.5693    2.4855   -0.6136 C   0  0  0  0  0  0  0  0  0  0  0  0
   -2.3799    3.1845    0.5385 H   0  0  0  0  0  0  0  0  0  0  0  0
   -3.7011    3.3249   -0.6232 H   0  0  0  0  0  0  0  0  0  0  0  0
   -5.0049    0.8942   -1.1994 H   0  0  0  0  0  0  0  0  0  0  0  0
   -4.1907    2.4412    2.2701 H   0  0  0  0  0  0  0  0  0  0  0  0
   -5.1133    0.9670    1.9633 H   0  0  0  0  0  0  0  0  0  0  0  0
   -5.4759    2.4335    1.0457 H   0  0  0  0  0  0  0  0  0  0  0  0
   -2.4849   -2.8186    0.4005 H   0  0  0  0  0  0  0  0  0  0  0  0
   -1.6347   -1.8998    1.6804 H   0  0  0  0  0  0  0  0  0  0  0  0
   -1.2333    1.5386   -0.9915 H   0  0  0  0  0  0  0  0  0  0  0  0
   -1.5375    3.0923   -1.7570 H   0  0  0  0  0  0  0  0  0  0  0  0
   -2.5620    1.7223   -2.1605 H   0  0  0  0  0  0  0  0  0  0  0  0
    1.5401   -2.8077   -1.3536 H   0  0  0  0  0  0  0  0  0  0  0  0
    2.1265   -3.5846    0.1137 H   0  0  0  0  0  0  0  0  0  0  0  0
    0.2936   -2.8469    1.3074 H   0  0  0  0  0  0  0  0  0  0  0  0
    1.9396   -0.3867   -1.7763 H   0  0  0  0  0  0  0  0  0  0  0  0
    3.4313   -2.3425    1.7846 H   0  0  0  0  0  0  0  0  0  0  0  0
    4.9368   -0.4192    2.2214 H   0  0  0  0  0  0  0  0  0  0  0  0
    4.1552    3.4499   -0.2973 H   0  0  0  0  0  0  0  0  0  0  0  0
    5.4331    2.6694   -1.2627 H   0  0  0  0  0  0  0  0  0  0  0  0
  1 11  2  0  0  0  0
  2 13  2  0  0  0  0
  3 16  2  0  0  0  0
  4 20  1  0  0  0  0
  4 24  1  0  0  0  0
  5 22  1  0  0  0  0
  5 24  1  0  0  0  0
  6  9  1  0  0  0  0
  6 13  1  0  0  0  0
  6 27  1  0  0  0  0
  7 11  1  0  0  0  0
  7 13  1  0  0  0  0
  7 14  1  0  0  0  0
  8 16  1  0  0  0  0
  8 17  1  0  0  0  0
  8 38  1  0  0  0  0
  9 10  1  0  0  0  0
  9 11  1  0  0  0  0
  9 12  1  0  0  0  0
 10 15  1  0  0  0  0
 10 25  1  0  0  0  0
 10 26  1  0  0  0  0
 12 28  1  0  0  0  0
 12 29  1  0  0  0  0
 12 30  1  0  0  0  0
 14 16  1  0  0  0  0
 14 31  1  0  0  0  0
 14 32  1  0  0  0  0
 15 33  1  0  0  0  0
 15 34  1  0  0  0  0
 15 35  1  0  0  0  0
 17 18  1  0  0  0  0
 17 36  1  0  0  0  0
 17 37  1  0  0  0  0
 18 19  2  0  0  0  0
 18 21  1  0  0  0  0
 19 20  1  0  0  0  0
 19 39  1  0  0  0  0
 20 22  2  0  0  0  0
 21 23  2  0  0  0  0
 21 40  1  0  0  0  0
 22 23  1  0  0  0  0
 23 41  1  0  0  0  0
 24 42  1  0  0  0  0
 24 43  1  0  0  0  0
M  END
> <PUBCHEM_COMPOUND_CID>
17396485

> <PUBCHEM_CONFORMER_RMSD>
1

> <PUBCHEM_CONFORMER_DIVERSEORDER>
1
185
102
193
65
141
138
111
162
22
29
195
132
116
78
93
7
224
123
171
127
223
87
63
167
210
222
58
197
225
44
71
133
114
80
106
10
104
196
39
2
101
16
160
89
176
115
122
170
76
145
64
45
99
27
26
214
73
90
180
234
231
232
130
165
24
219
177
88
60
118
81
120
218
15
181
83
72
50
124
201
32
157
179
66
228
43
98
189
109
37
31
129
153
68
23
191
70
100
52
151
163
21
105
209
56
59
19
226
178
235
213
119
152
82
36
203
97
140
91
230
55
126
40
3
8
221
208
155
147
13
134
174
110
146
205
25
107
194
211
128
168
154
47
84
149
136
217
117
67
28
137
85
131
143
57
46
42
148
9
95
216
156
172
33
113
17
150
200
198
14
54
166
212
233
187
121
206
48
53
34
159
6
4
173
207
20
164
158
190
11
229
135
144
161
175
41
227
215
38
86
92
204
94
169
202
12
5
184
142
74
69
62
139
108
186
30
49
96
188
75
35
103
220
183
192
79
182
61
51
112
18
199
125
77

> <PUBCHEM_MMFF94_PARTIAL_CHARGES>
26
1 -0.57
11 0.57
13 0.69
14 0.36
16 0.57
17 0.44
18 -0.14
19 -0.15
2 -0.57
20 0.08
21 -0.15
22 0.08
23 -0.15
24 0.56
27 0.37
3 -0.57
38 0.37
39 0.15
4 -0.36
40 0.15
41 0.15
5 -0.36
6 -0.73
7 -0.42
8 -0.73
9 0.36

> <PUBCHEM_EFFECTIVE_ROTOR_COUNT>
7.2

> <PUBCHEM_PHARMACOPHORE_FEATURES>
11
1 1 acceptor
1 15 hydrophobe
1 2 acceptor
1 3 acceptor
1 4 acceptor
1 5 acceptor
1 6 donor
1 8 donor
5 4 5 20 22 24 rings
5 6 7 9 11 13 rings
6 18 19 20 21 22 23 rings

> <PUBCHEM_HEAVY_ATOM_COUNT>
24

> <PUBCHEM_ATOM_DEF_STEREO_COUNT>
0

> <PUBCHEM_ATOM_UDEF_STEREO_COUNT>
1

> <PUBCHEM_BOND_DEF_STEREO_COUNT>
0

> <PUBCHEM_BOND_UDEF_STEREO_COUNT>
0

> <PUBCHEM_ISOTOPIC_ATOM_COUNT>
0

> <PUBCHEM_COMPONENT_COUNT>
1

> <PUBCHEM_CACTVS_TAUTO_COUNT>
4

> <PUBCHEM_CONFORMER_ID>
0109730500000001

> <PUBCHEM_MMFF94_ENERGY>
47.7193

> <PUBCHEM_FEATURE_SELFOVERLAP>
55.973

> <PUBCHEM_SHAPE_FINGERPRINT>
10498660 4 17675920997618137834
10670039 82 18340475678617985156
11370993 70 18412546522118187784
12633257 1 18060423542598947186
12788726 201 18048326543671945710
13224815 77 18259987106078646686
13583140 156 16988852708344307010
14251764 38 18270406121187323076
14739800 52 18044957679489417272
14950920 106 17132115740738744392
15163728 17 17531513382546763343
15342168 16 18335411426607117945
15475509 8 18338790226641614190
15840311 113 17902213836070403289
20715895 44 18052266390423828425
21033648 29 16415205610792004231
21095088 737 18335704888531628993
21503847 285 18343864433711082362
21623110 236 18411136948607297157
21864079 5 18411693301100438262
22749437 52 18410854395182026832
23227448 37 18338516451934096991
235170 7 15357694188988307776
23559900 14 17605558957964277886
245318 6 17701526312979729524
341906 21 18186806855171768970
3472631 163 18115023138556361829
38570 142 17273110429733498580
469060 322 18053080853604010635
474 4 18341049700274772339
5048184 11 18410005516544966616
5081480 168 17390497855246701454
6328613 192 18271800187121955116
633830 44 18335978761279641199
7064713 232 18409733962964140056
7808743 9 18265612079308193072
960060 61 7132426913206422050
9981440 41 18412265004034328842

> <PUBCHEM_SHAPE_MULTIPOLES>
449.62
11.16
3.22
1.43
2.85
0.23
0.16
6.22
1.38
0.47
-0.52
-0.45
0.24
-1.35

> <PUBCHEM_SHAPE_SELFOVERLAP>
966.983

> <PUBCHEM_SHAPE_VOLUME>
249.7

> <PUBCHEM_COORDINATE_TYPE>
2
5
10

$$$$

