3480
  -OEChem-06251223263D

 29 30  0     1  0  0  0  0  0999 V2000
    3.9100   -0.5769   -1.6480 S   0  0  0  0  0  0  0  0  0  0  0  0
   -0.4678   -0.9778    0.4254 O   0  0  0  0  0  0  0  0  0  0  0  0
    0.8270    2.4495   -0.0750 O   0  0  0  0  0  0  0  0  0  0  0  0
   -1.9871    2.7686   -0.5145 O   0  0  0  0  0  0  0  0  0  0  0  0
   -2.8881    0.5402    0.8075 O   0  0  0  0  0  0  0  0  0  0  0  0
   -1.6600   -3.3398   -0.3101 O   0  0  0  0  0  0  0  0  0  0  0  0
    1.2901   -0.1470    2.5015 O   0  0  0  0  0  0  0  0  0  0  0  0
    1.3349   -0.1031   -1.0608 N   0  0  0  0  0  0  0  0  0  0  0  0
    2.7276   -0.3755    0.6937 N   0  0  0  0  0  0  0  0  0  0  0  0
    0.5166    0.0332    0.1825 C   0  0  1  0  0  0  0  0  0  0  0  0
   -0.1159    1.4337    0.2618 C   0  0  2  0  0  0  0  0  0  0  0  0
   -1.3027    1.5326   -0.7014 C   0  0  1  0  0  0  0  0  0  0  0  0
   -2.2787    0.3754   -0.4756 C   0  0  1  0  0  0  0  0  0  0  0  0
   -1.5356   -0.9643   -0.5316 C   0  0  2  0  0  0  0  0  0  0  0  0
    1.5283   -0.1615    1.3044 C   0  0  0  0  0  0  0  0  0  0  0  0
   -2.4335   -2.1565   -0.2224 C   0  0  0  0  0  0  0  0  0  0  0  0
    2.5348   -0.3309   -0.6374 C   0  0  0  0  0  0  0  0  0  0  0  0
   -0.4577    1.6492    1.2815 H   0  0  0  0  0  0  0  0  0  0  0  0
   -0.9410    1.5236   -1.7370 H   0  0  0  0  0  0  0  0  0  0  0  0
   -3.0809    0.4148   -1.2216 H   0  0  0  0  0  0  0  0  0  0  0  0
   -1.0975   -1.1125   -1.5273 H   0  0  0  0  0  0  0  0  0  0  0  0
   -3.2643   -2.2192   -0.9318 H   0  0  0  0  0  0  0  0  0  0  0  0
   -2.8280   -2.1069    0.7972 H   0  0  0  0  0  0  0  0  0  0  0  0
    1.1596    2.2613   -0.9692 H   0  0  0  0  0  0  0  0  0  0  0  0
    3.6076   -0.5447    1.1661 H   0  0  0  0  0  0  0  0  0  0  0  0
   -2.7313    2.7891   -1.1402 H   0  0  0  0  0  0  0  0  0  0  0  0
   -3.6590   -0.0505    0.8462 H   0  0  0  0  0  0  0  0  0  0  0  0
   -2.2526   -4.0854   -0.1139 H   0  0  0  0  0  0  0  0  0  0  0  0
    4.8150   -0.7523   -0.6743 H   0  0  0  0  0  0  0  0  0  0  0  0
  1 17  1  0  0  0  0
  1 29  1  0  0  0  0
  2 10  1  0  0  0  0
  2 14  1  0  0  0  0
  3 11  1  0  0  0  0
  3 24  1  0  0  0  0
  4 12  1  0  0  0  0
  4 26  1  0  0  0  0
  5 13  1  0  0  0  0
  5 27  1  0  0  0  0
  6 16  1  0  0  0  0
  6 28  1  0  0  0  0
  7 15  2  0  0  0  0
  8 10  1  0  0  0  0
  8 17  2  0  0  0  0
  9 15  1  0  0  0  0
  9 17  1  0  0  0  0
  9 25  1  0  0  0  0
 10 11  1  0  0  0  0
 10 15  1  0  0  0  0
 11 12  1  0  0  0  0
 11 18  1  0  0  0  0
 12 13  1  0  0  0  0
 12 19  1  0  0  0  0
 13 14  1  0  0  0  0
 13 20  1  0  0  0  0
 14 16  1  0  0  0  0
 14 21  1  0  0  0  0
 16 22  1  0  0  0  0
 16 23  1  0  0  0  0
M  END
> <PUBCHEM_COMPOUND_CID>
3480

> <PUBCHEM_CONFORMER_RMSD>
0.6

> <PUBCHEM_CONFORMER_DIVERSEORDER>
2
56
32
19
51
39
37
29
64
20
40
57
63
48
26
55
43
60
27
49
34
59
24
11
7
30
42
44
54
53
61
66
35
21
67
12
33
13
68
45
65
4
36
38
23
50
31
52
8
47
17
16
18
62
46
14
1
28
9
15
22
41
10
58
5
3
6
25

> <PUBCHEM_MMFF94_PARTIAL_CHARGES>
23
1 -0.32
10 0.59
11 0.28
12 0.28
13 0.28
14 0.28
15 0.57
16 0.28
17 0.65
2 -0.56
24 0.4
25 0.37
26 0.4
27 0.4
28 0.4
29 0.18
3 -0.68
4 -0.68
5 -0.68
6 -0.68
7 -0.57
8 -0.7
9 -0.49

> <PUBCHEM_EFFECTIVE_ROTOR_COUNT>
2.2

> <PUBCHEM_PHARMACOPHORE_FEATURES>
13
1 2 acceptor
1 3 acceptor
1 3 donor
1 4 acceptor
1 4 donor
1 5 acceptor
1 5 donor
1 6 acceptor
1 6 donor
1 7 acceptor
1 9 donor
5 8 9 10 15 17 rings
6 2 10 11 12 13 14 rings

> <PUBCHEM_HEAVY_ATOM_COUNT>
17

> <PUBCHEM_ATOM_DEF_STEREO_COUNT>
0

> <PUBCHEM_ATOM_UDEF_STEREO_COUNT>
5

> <PUBCHEM_BOND_DEF_STEREO_COUNT>
0

> <PUBCHEM_BOND_UDEF_STEREO_COUNT>
0

> <PUBCHEM_ISOTOPIC_ATOM_COUNT>
0

> <PUBCHEM_COMPONENT_COUNT>
1

> <PUBCHEM_CACTVS_TAUTO_COUNT>
5

> <PUBCHEM_CONFORMER_ID>
00000D9800000002

> <PUBCHEM_MMFF94_ENERGY>
39.2296

> <PUBCHEM_FEATURE_SELFOVERLAP>
66.003

> <PUBCHEM_SHAPE_FINGERPRINT>
12202030 40 17676207940114849782
12423570 1 8894597521774450010
12507560 18 17024296638360653931
12716758 59 18336269066787726798
13538477 17 18131360721118224807
13898156 1 17774175624418842328
14761567 1 17130434475500899170
14817 1 17833600873493760378
15375462 175 18338519771411060315
15502708 8 18338785784537245094
15775835 57 17487885912176439076
16752209 62 18270134520835720045
16945 1 18411708702747582293
17990270 104 17761497984884177119
18534176 82 18115579482570208588
20645476 183 18057881540112986263
20645477 70 16898784787943845943
20711985 344 18411987944547163815
20871999 31 18408317817419479421
21501502 16 18265892445550552981
22112679 90 17845666957384321920
22802520 49 18187361086283739006
23236772 104 17560223830002568484
2334 1 18052262786945598111
23419403 2 17458346299830253922
23493267 7 17771612718580713897
23526113 38 17676214597504003938
23557571 272 18261116262151201824
23559900 14 18116716408412883030
23598294 1 18342174530839850569
2748010 2 18122919637513634141
298252 57 18056182812049617120
3286 77 16660924379299730295
568465 68 17095516288711444342
68419 9 17916603032081323450
7364860 26 17613998495638221477
77492 1 17632297929815761362
81228 2 18263096448122311623

> <PUBCHEM_SHAPE_MULTIPOLES>
308.52
4.71
2.54
1.44
2.84
0.42
-0.71
1.24
1.62
-2.49
0.54
1.16
0.05
0.27

> <PUBCHEM_SHAPE_SELFOVERLAP>
643.423

> <PUBCHEM_SHAPE_VOLUME>
177.8

> <PUBCHEM_COORDINATE_TYPE>
2
5
10

$$$$

