10744
  -OEChem-06261204542D

 24 24  0     0  0  0  0  0  0999 V2000
    2.3024    0.8660    0.0000 S   0  0  0  0  0  0  0  0  0  0  0  0
    3.1684    1.3660    0.0000 O   0  0  0  0  0  0  0  0  0  0  0  0
    1.4363    0.3660    0.0000 O   0  0  0  0  0  0  0  0  0  0  0  0
    1.8024    1.7320    0.0000 O   0  0  0  0  0  0  0  0  0  0  0  0
    2.8024    0.0000    0.0000 O   0  0  0  0  0  0  0  0  0  0  0  0
    1.4030    4.4144    0.0000 N   0  0  0  0  0  0  0  0  0  0  0  0
    2.2690    5.9144    0.0000 C   0  0  0  0  0  0  0  0  0  0  0  0
    2.2690    4.9144    0.0000 C   0  0  0  0  0  0  0  0  0  0  0  0
    3.1629    6.4491    0.0000 C   0  0  0  0  0  0  0  0  0  0  0  0
    1.4030    6.4144    0.0000 C   0  0  0  0  0  0  0  0  0  0  0  0
    3.1629    4.3798    0.0000 C   0  0  0  0  0  0  0  0  0  0  0  0
    4.0690    5.9352    0.0000 C   0  0  0  0  0  0  0  0  0  0  0  0
    4.0690    4.8936    0.0000 C   0  0  0  0  0  0  0  0  0  0  0  0
    0.5369    5.9144    0.0000 C   0  0  0  0  0  0  0  0  0  0  0  0
    0.5369    4.9144    0.0000 C   0  0  0  0  0  0  0  0  0  0  0  0
    3.1558    7.0690    0.0000 H   0  0  0  0  0  0  0  0  0  0  0  0
    1.4030    7.0344    0.0000 H   0  0  0  0  0  0  0  0  0  0  0  0
    3.1558    3.7598    0.0000 H   0  0  0  0  0  0  0  0  0  0  0  0
    4.6047    6.2473    0.0000 H   0  0  0  0  0  0  0  0  0  0  0  0
    4.6047    4.5815    0.0000 H   0  0  0  0  0  0  0  0  0  0  0  0
    0.0000    6.2244    0.0000 H   0  0  0  0  0  0  0  0  0  0  0  0
    0.0000    4.6044    0.0000 H   0  0  0  0  0  0  0  0  0  0  0  0
    3.7053    1.0560    0.0000 H   0  0  0  0  0  0  0  0  0  0  0  0
    0.8994    0.6760    0.0000 H   0  0  0  0  0  0  0  0  0  0  0  0
  1  2  1  0  0  0  0
  1  3  1  0  0  0  0
  1  4  2  0  0  0  0
  1  5  2  0  0  0  0
  2 23  1  0  0  0  0
  3 24  1  0  0  0  0
  6  8  1  0  0  0  0
  6 15  2  0  0  0  0
  7  8  1  0  0  0  0
  7  9  2  0  0  0  0
  7 10  1  0  0  0  0
  8 11  2  0  0  0  0
  9 12  1  0  0  0  0
  9 16  1  0  0  0  0
 10 14  2  0  0  0  0
 10 17  1  0  0  0  0
 11 13  1  0  0  0  0
 11 18  1  0  0  0  0
 12 13  2  0  0  0  0
 12 19  1  0  0  0  0
 13 20  1  0  0  0  0
 14 15  1  0  0  0  0
 14 21  1  0  0  0  0
 15 22  1  0  0  0  0
M  END
> <PUBCHEM_COMPOUND_CID>
10744

> <PUBCHEM_COMPOUND_CANONICALIZED>
1

> <PUBCHEM_CACTVS_COMPLEXITY>
193

> <PUBCHEM_CACTVS_HBOND_ACCEPTOR>
5

> <PUBCHEM_CACTVS_HBOND_DONOR>
2

> <PUBCHEM_CACTVS_ROTATABLE_BOND>
0

> <PUBCHEM_CACTVS_SUBSKEYS>
AAADccByOABAAAAAAAAAAAAAAAAAAAAAAAA8QAAAAAAAAACx8AAAHAAACAAADAjBHgQ8wPIIEICgAzRnRDCCgCAxAiAI2CA4ZJgIIOLAkZGEIAhggADIyAcQgIAOAAAAAAACAAAAAAAAAAQAAAAAAAAAAA==

> <PUBCHEM_IUPAC_OPENEYE_NAME>
quinoline; sulfuric acid

> <PUBCHEM_IUPAC_CAS_NAME>
quinoline; sulfuric acid

> <PUBCHEM_IUPAC_NAME>
quinoline; sulfuric acid

> <PUBCHEM_IUPAC_SYSTEMATIC_NAME>
quinoline; sulfuric acid

> <PUBCHEM_IUPAC_TRADITIONAL_NAME>
quinoline; sulfuric acid

> <PUBCHEM_IUPAC_INCHI>
InChI=1S/C9H7N.H2O4S/c1-2-6-9-8(4-1)5-3-7-10-9;1-5(2,3)4/h1-7H;(H2,1,2,3,4)

> <PUBCHEM_IUPAC_INCHIKEY>
WSZKUEZEYFNPID-UHFFFAOYSA-N

> <PUBCHEM_EXACT_MASS>
227.025229

> <PUBCHEM_MOLECULAR_FORMULA>
C9H9NO4S

> <PUBCHEM_MOLECULAR_WEIGHT>
227.23706

> <PUBCHEM_OPENEYE_CAN_SMILES>
C1=CC=C2C(=C1)C=CC=N2.OS(=O)(=O)O

> <PUBCHEM_OPENEYE_ISO_SMILES>
C1=CC=C2C(=C1)C=CC=N2.OS(=O)(=O)O

> <PUBCHEM_CACTVS_TPSA>
95.9

> <PUBCHEM_MONOISOTOPIC_WEIGHT>
227.025229

> <PUBCHEM_TOTAL_CHARGE>
0

> <PUBCHEM_HEAVY_ATOM_COUNT>
15

> <PUBCHEM_ATOM_DEF_STEREO_COUNT>
0

> <PUBCHEM_ATOM_UDEF_STEREO_COUNT>
0

> <PUBCHEM_BOND_DEF_STEREO_COUNT>
0

> <PUBCHEM_BOND_UDEF_STEREO_COUNT>
0

> <PUBCHEM_ISOTOPIC_ATOM_COUNT>
0

> <PUBCHEM_COMPONENT_COUNT>
2

> <PUBCHEM_CACTVS_TAUTO_COUNT>
1

> <PUBCHEM_COORDINATE_TYPE>
1
5
255

> <PUBCHEM_BONDANNOTATIONS>
10  14  8
11  13  8
12  13  8
14  15  8
6  15  8
6  8  8
7  10  8
7  8  8
7  9  8
8  11  8
9  12  8

$$$$

