13766
  -OEChem-06241222402D

 45 48  0     1  0  0  0  0  0999 V2000
    9.1493    1.8120    0.0000 O   0  0  0  0  0  0  0  0  0  0  0  0
    2.0000   -2.1314    0.0000 O   0  0  0  0  0  0  0  0  0  0  0  0
    7.3931    0.9209    0.0000 C   0  0  3  0  0  0  0  0  0  0  0  0
    7.3931   -0.0791    0.0000 C   0  0  3  0  0  0  0  0  0  0  0  0
    8.3393    1.2257    0.0000 C   0  0  2  0  0  0  0  0  0  0  0  0
    6.5271   -0.5791    0.0000 C   0  0  3  0  0  0  0  0  0  0  0  0
    8.3393   -0.3838    0.0000 C   0  0  0  0  0  0  0  0  0  0  0  0
    8.9229    0.4209    0.0000 C   0  0  0  0  0  0  0  0  0  0  0  0
    5.6610   -0.0791    0.0000 C   0  0  0  0  0  0  0  0  0  0  0  0
    6.5271    1.4209    0.0000 C   0  0  0  0  0  0  0  0  0  0  0  0
    6.5431   -1.6206    0.0000 C   0  0  0  0  0  0  0  0  0  0  0  0
    7.3931    1.9209    0.0000 C   0  0  0  0  0  0  0  0  0  0  0  0
    8.0319    2.1772    0.0000 C   0  0  0  0  0  0  0  0  0  0  0  0
    5.6610    0.9209    0.0000 C   0  0  0  0  0  0  0  0  0  0  0  0
    4.7510   -0.5859    0.0000 C   0  0  0  0  0  0  0  0  0  0  0  0
    5.6451   -2.1483    0.0000 C   0  0  0  0  0  0  0  0  0  0  0  0
    4.7430   -1.6275    0.0000 C   0  0  0  0  0  0  0  0  0  0  0  0
    3.8242   -0.0218    0.0000 C   0  0  0  0  0  0  0  0  0  0  0  0
    3.8076   -2.1772    0.0000 C   0  0  0  0  0  0  0  0  0  0  0  0
    2.8763   -0.5498    0.0000 C   0  0  0  0  0  0  0  0  0  0  0  0
    2.8680   -1.6348    0.0000 C   0  0  0  0  0  0  0  0  0  0  0  0
    7.4830   -0.9243    0.0000 H   0  0  0  0  0  0  0  0  0  0  0  0
    7.2664   -0.9984    0.0000 H   0  0  0  0  0  0  0  0  0  0  0  0
    8.0883   -0.9507    0.0000 H   0  0  0  0  0  0  0  0  0  0  0  0
    8.8767   -0.6930    0.0000 H   0  0  0  0  0  0  0  0  0  0  0  0
    9.3838    0.0062    0.0000 H   0  0  0  0  0  0  0  0  0  0  0  0
    9.3838    0.8357    0.0000 H   0  0  0  0  0  0  0  0  0  0  0  0
    6.5271    2.0409    0.0000 H   0  0  0  0  0  0  0  0  0  0  0  0
    6.7612   -2.2010    0.0000 H   0  0  0  0  0  0  0  0  0  0  0  0
    7.1523   -1.5051    0.0000 H   0  0  0  0  0  0  0  0  0  0  0  0
    8.0131    1.9209    0.0000 H   0  0  0  0  0  0  0  0  0  0  0  0
    7.3931    2.5409    0.0000 H   0  0  0  0  0  0  0  0  0  0  0  0
    6.7731    1.9209    0.0000 H   0  0  0  0  0  0  0  0  0  0  0  0
    8.6219    2.3678    0.0000 H   0  0  0  0  0  0  0  0  0  0  0  0
    7.8414    2.7672    0.0000 H   0  0  0  0  0  0  0  0  0  0  0  0
    7.4420    1.9867    0.0000 H   0  0  0  0  0  0  0  0  0  0  0  0
    5.1241    1.2309    0.0000 H   0  0  0  0  0  0  0  0  0  0  0  0
    5.2478   -2.6243    0.0000 H   0  0  0  0  0  0  0  0  0  0  0  0
    6.0460   -2.6212    0.0000 H   0  0  0  0  0  0  0  0  0  0  0  0
    9.7153    1.5589    0.0000 H   0  0  0  0  0  0  0  0  0  0  0  0
    4.2324    0.4448    0.0000 H   0  0  0  0  0  0  0  0  0  0  0  0
    3.4343    0.4602    0.0000 H   0  0  0  0  0  0  0  0  0  0  0  0
    3.8100   -2.7972    0.0000 H   0  0  0  0  0  0  0  0  0  0  0  0
    2.6718    0.0355    0.0000 H   0  0  0  0  0  0  0  0  0  0  0  0
    2.2647   -0.6512    0.0000 H   0  0  0  0  0  0  0  0  0  0  0  0
  5  1  1  1  0  0  0
  1 40  1  0  0  0  0
  2 21  2  0  0  0  0
  3  4  1  0  0  0  0
  3  5  1  0  0  0  0
  3 10  1  0  0  0  0
  3 12  1  0  0  0  0
  4  6  1  0  0  0  0
  4  7  1  0  0  0  0
  4 22  1  0  0  0  0
  5  8  1  0  0  0  0
  5 13  1  0  0  0  0
  6  9  1  0  0  0  0
  6 11  1  0  0  0  0
  6 23  1  0  0  0  0
  7  8  1  0  0  0  0
  7 24  1  0  0  0  0
  7 25  1  0  0  0  0
  8 26  1  0  0  0  0
  8 27  1  0  0  0  0
  9 14  1  0  0  0  0
  9 15  2  0  0  0  0
 10 14  2  0  0  0  0
 10 28  1  0  0  0  0
 11 16  1  0  0  0  0
 11 29  1  0  0  0  0
 11 30  1  0  0  0  0
 12 31  1  0  0  0  0
 12 32  1  0  0  0  0
 12 33  1  0  0  0  0
 13 34  1  0  0  0  0
 13 35  1  0  0  0  0
 13 36  1  0  0  0  0
 14 37  1  0  0  0  0
 15 17  1  0  0  0  0
 15 18  1  0  0  0  0
 16 17  1  0  0  0  0
 16 38  1  0  0  0  0
 16 39  1  0  0  0  0
 17 19  2  0  0  0  0
 18 20  1  0  0  0  0
 18 41  1  0  0  0  0
 18 42  1  0  0  0  0
 19 21  1  0  0  0  0
 19 43  1  0  0  0  0
 20 21  1  0  0  0  0
 20 44  1  0  0  0  0
 20 45  1  0  0  0  0
M  END
> <PUBCHEM_COMPOUND_CID>
13766

> <PUBCHEM_COMPOUND_CANONICALIZED>
1

> <PUBCHEM_CACTVS_COMPLEXITY>
609

> <PUBCHEM_CACTVS_HBOND_ACCEPTOR>
2

> <PUBCHEM_CACTVS_HBOND_DONOR>
1

> <PUBCHEM_CACTVS_ROTATABLE_BOND>
0

> <PUBCHEM_CACTVS_SUBSKEYS>
AAADceB4MAAAAAAAAAAAAAAAAAAAAYAAAAAgQIAAAAAAAECAAAAAGgAACAAAD0SAgAACAAAAAgCIAqBSAAAAAAAgAAAICAEAAEgIABIAAQAAQAAEwAAIgQOIyPCPgAAAAAAAAAAAAAAAAAAAAYAADAAAAA==

> <PUBCHEM_IUPAC_OPENEYE_NAME>
(17S)-17-hydroxy-13,17-dimethyl-1,2,6,7,8,14,15,16-octahydrocyclopenta[a]phenanthren-3-one

> <PUBCHEM_IUPAC_CAS_NAME>
(17S)-17-hydroxy-13,17-dimethyl-1,2,6,7,8,14,15,16-octahydrocyclopenta[a]phenanthren-3-one

> <PUBCHEM_IUPAC_NAME>
(17S)-17-hydroxy-13,17-dimethyl-1,2,6,7,8,14,15,16-octahydrocyclopenta[a]phenanthren-3-one

> <PUBCHEM_IUPAC_SYSTEMATIC_NAME>
(17S)-13,17-dimethyl-17-oxidanyl-1,2,6,7,8,14,15,16-octahydrocyclopenta[a]phenanthren-3-one

> <PUBCHEM_IUPAC_TRADITIONAL_NAME>
(17S)-17-hydroxy-13,17-dimethyl-1,2,6,7,8,14,15,16-octahydrocyclopenta[a]phenanthren-3-one

> <PUBCHEM_IUPAC_INCHI>
InChI=1S/C19H24O2/c1-18-9-7-15-14-6-4-13(20)11-12(14)3-5-16(15)17(18)8-10-19(18,2)21/h7,9,11,16-17,21H,3-6,8,10H2,1-2H3/t16?,17?,18?,19-/m0/s1

> <PUBCHEM_IUPAC_INCHIKEY>
CCCIJQPRIXGQOE-LFVBFMBRSA-N

> <PUBCHEM_XLOGP3_AA>
2.1

> <PUBCHEM_EXACT_MASS>
284.17763

> <PUBCHEM_MOLECULAR_FORMULA>
C19H24O2

> <PUBCHEM_MOLECULAR_WEIGHT>
284.39266

> <PUBCHEM_OPENEYE_CAN_SMILES>
CC1(CCC2C1(C=CC3=C4CCC(=O)C=C4CCC23)C)O

> <PUBCHEM_OPENEYE_ISO_SMILES>
C[C@@]1(CCC2C1(C=CC3=C4CCC(=O)C=C4CCC23)C)O

> <PUBCHEM_CACTVS_TPSA>
37.3

> <PUBCHEM_MONOISOTOPIC_WEIGHT>
284.17763

> <PUBCHEM_TOTAL_CHARGE>
0

> <PUBCHEM_HEAVY_ATOM_COUNT>
21

> <PUBCHEM_ATOM_DEF_STEREO_COUNT>
1

> <PUBCHEM_ATOM_UDEF_STEREO_COUNT>
3

> <PUBCHEM_BOND_DEF_STEREO_COUNT>
0

> <PUBCHEM_BOND_UDEF_STEREO_COUNT>
0

> <PUBCHEM_ISOTOPIC_ATOM_COUNT>
0

> <PUBCHEM_COMPONENT_COUNT>
1

> <PUBCHEM_CACTVS_TAUTO_COUNT>
13

> <PUBCHEM_COORDINATE_TYPE>
1
5
255

> <PUBCHEM_BONDANNOTATIONS>
5  1  5
3  12  3
4  22  3
6  23  3

$$$$

