4539
  -OEChem-06261200123D

 41 43  0     0  0  0  0  0  0999 V2000
   -2.1109   -2.6635   -0.3503 F   0  0  0  0  0  0  0  0  0  0  0  0
    2.8988   -2.2970   -0.2189 O   0  0  0  0  0  0  0  0  0  0  0  0
    5.2330   -1.1914   -0.6774 O   0  0  0  0  0  0  0  0  0  0  0  0
    5.6358    0.5750    0.7183 O   0  0  0  0  0  0  0  0  0  0  0  0
   -3.0806   -0.0884   -0.0133 N   0  0  0  0  0  0  0  0  0  0  0  0
   -5.8499    0.5568    0.2392 N   0  0  0  0  0  0  0  0  0  0  0  0
    1.5423    1.5161    0.2831 N   0  0  0  0  0  0  0  0  0  0  0  0
   -3.8982   -0.7432    1.0170 C   0  0  0  0  0  0  0  0  0  0  0  0
   -3.5809    1.2032   -0.4964 C   0  0  0  0  0  0  0  0  0  0  0  0
   -5.3663   -0.7768    0.5936 C   0  0  0  0  0  0  0  0  0  0  0  0
   -5.0609    1.1010   -0.8646 C   0  0  0  0  0  0  0  0  0  0  0  0
   -1.7056   -0.3487   -0.0262 C   0  0  0  0  0  0  0  0  0  0  0  0
    0.5900    0.4821    0.1254 C   0  0  0  0  0  0  0  0  0  0  0  0
   -0.7988    0.7042    0.1330 C   0  0  0  0  0  0  0  0  0  0  0  0
    1.0295   -0.8505   -0.0506 C   0  0  0  0  0  0  0  0  0  0  0  0
   -1.2467   -1.6502   -0.1973 C   0  0  0  0  0  0  0  0  0  0  0  0
    0.1209   -1.9057   -0.2101 C   0  0  0  0  0  0  0  0  0  0  0  0
    1.0700    2.8864    0.4647 C   0  0  0  0  0  0  0  0  0  0  0  0
    2.4852   -1.1540   -0.0691 C   0  0  0  0  0  0  0  0  0  0  0  0
    2.8903    1.2068    0.2597 C   0  0  0  0  0  0  0  0  0  0  0  0
    3.4169   -0.0124    0.1003 C   0  0  0  0  0  0  0  0  0  0  0  0
    0.9126    3.5996   -0.8622 C   0  0  0  0  0  0  0  0  0  0  0  0
    4.8738   -0.1493    0.1021 C   0  0  0  0  0  0  0  0  0  0  0  0
   -3.7925   -0.1908    1.9599 H   0  0  0  0  0  0  0  0  0  0  0  0
   -3.5751   -1.7711    1.2131 H   0  0  0  0  0  0  0  0  0  0  0  0
   -3.0298    1.5248   -1.3890 H   0  0  0  0  0  0  0  0  0  0  0  0
   -3.4514    1.9684    0.2796 H   0  0  0  0  0  0  0  0  0  0  0  0
   -5.4999   -1.4607   -0.2540 H   0  0  0  0  0  0  0  0  0  0  0  0
   -5.9702   -1.1676    1.4198 H   0  0  0  0  0  0  0  0  0  0  0  0
   -5.4386    2.0975   -1.1179 H   0  0  0  0  0  0  0  0  0  0  0  0
   -5.1859    0.4742   -1.7567 H   0  0  0  0  0  0  0  0  0  0  0  0
   -6.8274    0.4956   -0.0443 H   0  0  0  0  0  0  0  0  0  0  0  0
   -1.1895    1.7067    0.2644 H   0  0  0  0  0  0  0  0  0  0  0  0
    0.4604   -2.9289   -0.3451 H   0  0  0  0  0  0  0  0  0  0  0  0
    0.1638    2.9583    1.0749 H   0  0  0  0  0  0  0  0  0  0  0  0
    1.8145    3.4434    1.0508 H   0  0  0  0  0  0  0  0  0  0  0  0
    3.5212    2.0821    0.3811 H   0  0  0  0  0  0  0  0  0  0  0  0
    1.8548    3.6116   -1.4205 H   0  0  0  0  0  0  0  0  0  0  0  0
    0.1596    3.1146   -1.4916 H   0  0  0  0  0  0  0  0  0  0  0  0
    0.6018    4.6367   -0.7018 H   0  0  0  0  0  0  0  0  0  0  0  0
    6.2058   -1.3155   -0.7015 H   0  0  0  0  0  0  0  0  0  0  0  0
  1 16  1  0  0  0  0
  2 19  2  0  0  0  0
  3 23  1  0  0  0  0
  3 41  1  0  0  0  0
  4 23  2  0  0  0  0
  5  8  1  0  0  0  0
  5  9  1  0  0  0  0
  5 12  1  0  0  0  0
  6 10  1  0  0  0  0
  6 11  1  0  0  0  0
  6 32  1  0  0  0  0
  7 13  1  0  0  0  0
  7 18  1  0  0  0  0
  7 20  1  0  0  0  0
  8 10  1  0  0  0  0
  8 24  1  0  0  0  0
  8 25  1  0  0  0  0
  9 11  1  0  0  0  0
  9 26  1  0  0  0  0
  9 27  1  0  0  0  0
 10 28  1  0  0  0  0
 10 29  1  0  0  0  0
 11 30  1  0  0  0  0
 11 31  1  0  0  0  0
 12 14  1  0  0  0  0
 12 16  2  0  0  0  0
 13 14  2  0  0  0  0
 13 15  1  0  0  0  0
 14 33  1  0  0  0  0
 15 17  2  0  0  0  0
 15 19  1  0  0  0  0
 16 17  1  0  0  0  0
 17 34  1  0  0  0  0
 18 22  1  0  0  0  0
 18 35  1  0  0  0  0
 18 36  1  0  0  0  0
 19 21  1  0  0  0  0
 20 21  2  0  0  0  0
 20 37  1  0  0  0  0
 21 23  1  0  0  0  0
 22 38  1  0  0  0  0
 22 39  1  0  0  0  0
 22 40  1  0  0  0  0
M  END
> <PUBCHEM_COMPOUND_CID>
4539

> <PUBCHEM_CONFORMER_RMSD>
0.8

> <PUBCHEM_CONFORMER_DIVERSEORDER>
1
5
3
4
2

> <PUBCHEM_MMFF94_PARTIAL_CHARGES>
27
1 -0.19
10 0.27
11 0.27
12 0.1
13 0.1
14 -0.15
15 0.09
16 0.19
17 -0.15
18 0.37
19 0.47
2 -0.57
20 -0.05
21 0.03
23 0.71
3 -0.65
32 0.36
33 0.15
34 0.15
37 0.15
4 -0.57
41 0.5
5 -0.84
6 -0.9
7 -0.57
8 0.37
9 0.37

> <PUBCHEM_EFFECTIVE_ROTOR_COUNT>
4.2

> <PUBCHEM_PHARMACOPHORE_FEATURES>
12
1 2 acceptor
1 21 anion
1 3 acceptor
1 4 acceptor
1 5 cation
1 6 cation
1 6 donor
1 7 cation
3 3 4 23 anion
6 12 13 14 15 16 17 rings
6 5 6 8 9 10 11 rings
6 7 13 15 19 20 21 rings

> <PUBCHEM_HEAVY_ATOM_COUNT>
23

> <PUBCHEM_ATOM_DEF_STEREO_COUNT>
0

> <PUBCHEM_ATOM_UDEF_STEREO_COUNT>
0

> <PUBCHEM_BOND_DEF_STEREO_COUNT>
0

> <PUBCHEM_BOND_UDEF_STEREO_COUNT>
0

> <PUBCHEM_ISOTOPIC_ATOM_COUNT>
0

> <PUBCHEM_COMPONENT_COUNT>
1

> <PUBCHEM_CACTVS_TAUTO_COUNT>
1

> <PUBCHEM_CONFORMER_ID>
000011BB00000001

> <PUBCHEM_MMFF94_ENERGY>
72.0128

> <PUBCHEM_FEATURE_SELFOVERLAP>
61.317

> <PUBCHEM_SHAPE_FINGERPRINT>
10 15 18342182120627396144
10366900 7 17489591139031384595
10688039 33 18131350855705472972
10967382 1 18409449210737173070
1100329 8 18337390426935171696
11578080 2 16879930533731568290
11646440 116 18259981569839714881
12011746 2 18409448119699331652
12035758 1 18411706469312042608
12166972 35 18114463375347400777
12293681 4 18060411421974553913
12403259 415 18412833486411678109
12507557 5 18410008828207429657
12553582 1 18339374019211135426
12788726 201 18271526524179365088
12838862 33 18336848441023414936
13140716 1 18192713336730280216
13402501 40 18342180007361288797
13533116 47 17022899099395599070
13583140 156 18059851749603353931
13862211 1 18408890658883218250
14170010 4 18408042909827721369
14341114 176 18411411792054172297
14790565 3 18337947990984513352
15081414 286 18334850649722778828
15099037 51 18409730655538258509
15131766 46 14347518925680312226
15196674 1 18336548205476360066
1601671 61 18410856568456713896
17349148 13 17676201373230887459
18785283 64 18127404562238748844
19141452 34 18259988141250479566
19591789 44 18267022936745513599
200 152 17894916247998312025
20642791 178 18127124165947585036
21033648 29 18114478828486855137
21267235 1 18336537305181899550
21279426 13 18193556894156113764
21285901 2 18262512731996571220
21421861 104 17987247814266421194
21641784 216 18057586837196907852
21709351 56 18410863135999572285
221357 26 18410580625825467029
23227448 37 18336548210008951447
23366157 5 17842282458810101508
23402539 116 18260556627295159847
23558518 356 17910117906184365642
23559900 14 18334300820635971313
3004659 81 18201998872285156630
335352 9 18408886226550523382
34934 24 18409738361110851882
350125 39 18266173929576062579
3545911 37 18334856112652244970
4340502 62 17060617823868299330
5104073 3 18264774263884584418
7495541 125 18060130999343678681
7832392 63 18336553720087819598
9709674 26 18267583494703357659
9981440 41 17185319738191730712
9999458 23 18202282459467586885

> <PUBCHEM_SHAPE_MULTIPOLES>
433.5
11.36
2.84
0.8
4
1.67
-0.01
-0.79
-0.74
-0.97
0.52
0.25
0.12
0.78

> <PUBCHEM_SHAPE_SELFOVERLAP>
934.79

> <PUBCHEM_SHAPE_VOLUME>
238.3

> <PUBCHEM_COORDINATE_TYPE>
2
5
10

$$$$

