17395444
  -OEChem-06241222502D

 39 41  0     1  0  0  0  0  0999 V2000
    2.8660    0.2215    0.0000 O   0  0  0  0  0  0  0  0  0  0  0  0
    3.7320    1.7215    0.0000 N   0  0  0  0  0  0  0  0  0  0  0  0
    5.5116    0.6283    0.0000 N   0  0  0  0  0  0  0  0  0  0  0  0
    6.1808   -0.1149    0.0000 N   0  0  0  0  0  0  0  0  0  0  0  0
    2.8660    2.2215    0.0000 C   0  0  3  0  0  0  0  0  0  0  0  0
    2.8660    3.2215    0.0000 C   0  0  0  0  0  0  0  0  0  0  0  0
    3.7320    3.7215    0.0000 C   0  0  0  0  0  0  0  0  0  0  0  0
    4.5981    3.2215    0.0000 C   0  0  0  0  0  0  0  0  0  0  0  0
    4.5981    2.2215    0.0000 C   0  0  0  0  0  0  0  0  0  0  0  0
    2.0000    1.7215    0.0000 C   0  0  0  0  0  0  0  0  0  0  0  0
    3.7320    0.7215    0.0000 C   0  0  0  0  0  0  0  0  0  0  0  0
    4.5981    0.2215    0.0000 C   0  0  0  0  0  0  0  0  0  0  0  0
    4.7026   -0.7730    0.0000 C   0  0  0  0  0  0  0  0  0  0  0  0
    5.6808   -0.9809    0.0000 C   0  0  0  0  0  0  0  0  0  0  0  0
    6.0875   -1.8944    0.0000 C   0  0  0  0  0  0  0  0  0  0  0  0
    5.4997   -2.7035    0.0000 C   0  0  0  0  0  0  0  0  0  0  0  0
    7.0820   -1.9990    0.0000 C   0  0  0  0  0  0  0  0  0  0  0  0
    5.9064   -3.6170    0.0000 C   0  0  0  0  0  0  0  0  0  0  0  0
    7.4888   -2.9125    0.0000 C   0  0  0  0  0  0  0  0  0  0  0  0
    6.9010   -3.7215    0.0000 C   0  0  0  0  0  0  0  0  0  0  0  0
    2.8660    1.6015    0.0000 H   0  0  0  0  0  0  0  0  0  0  0  0
    2.6540    3.8041    0.0000 H   0  0  0  0  0  0  0  0  0  0  0  0
    2.2554    3.1139    0.0000 H   0  0  0  0  0  0  0  0  0  0  0  0
    4.1306    4.1965    0.0000 H   0  0  0  0  0  0  0  0  0  0  0  0
    3.3335    4.1965    0.0000 H   0  0  0  0  0  0  0  0  0  0  0  0
    5.2087    3.1139    0.0000 H   0  0  0  0  0  0  0  0  0  0  0  0
    4.8101    3.8041    0.0000 H   0  0  0  0  0  0  0  0  0  0  0  0
    4.8101    1.6389    0.0000 H   0  0  0  0  0  0  0  0  0  0  0  0
    5.2087    2.3292    0.0000 H   0  0  0  0  0  0  0  0  0  0  0  0
    1.6900    2.2585    0.0000 H   0  0  0  0  0  0  0  0  0  0  0  0
    1.4631    1.4115    0.0000 H   0  0  0  0  0  0  0  0  0  0  0  0
    2.3100    1.1846    0.0000 H   0  0  0  0  0  0  0  0  0  0  0  0
    4.2419   -1.1878    0.0000 H   0  0  0  0  0  0  0  0  0  0  0  0
    5.6405    1.2347    0.0000 H   0  0  0  0  0  0  0  0  0  0  0  0
    4.8831   -2.6386    0.0000 H   0  0  0  0  0  0  0  0  0  0  0  0
    7.4464   -1.4974    0.0000 H   0  0  0  0  0  0  0  0  0  0  0  0
    5.5420   -4.1186    0.0000 H   0  0  0  0  0  0  0  0  0  0  0  0
    8.1054   -2.9773    0.0000 H   0  0  0  0  0  0  0  0  0  0  0  0
    7.1531   -4.2879    0.0000 H   0  0  0  0  0  0  0  0  0  0  0  0
  1 11  2  0  0  0  0
  2  5  1  0  0  0  0
  2  9  1  0  0  0  0
  2 11  1  0  0  0  0
  3  4  1  0  0  0  0
  3 12  1  0  0  0  0
  3 34  1  0  0  0  0
  4 14  2  0  0  0  0
  5  6  1  0  0  0  0
  5 10  1  0  0  0  0
  5 21  1  0  0  0  0
  6  7  1  0  0  0  0
  6 22  1  0  0  0  0
  6 23  1  0  0  0  0
  7  8  1  0  0  0  0
  7 24  1  0  0  0  0
  7 25  1  0  0  0  0
  8  9  1  0  0  0  0
  8 26  1  0  0  0  0
  8 27  1  0  0  0  0
  9 28  1  0  0  0  0
  9 29  1  0  0  0  0
 10 30  1  0  0  0  0
 10 31  1  0  0  0  0
 10 32  1  0  0  0  0
 11 12  1  0  0  0  0
 12 13  2  0  0  0  0
 13 14  1  0  0  0  0
 13 33  1  0  0  0  0
 14 15  1  0  0  0  0
 15 16  2  0  0  0  0
 15 17  1  0  0  0  0
 16 18  1  0  0  0  0
 16 35  1  0  0  0  0
 17 19  2  0  0  0  0
 17 36  1  0  0  0  0
 18 20  2  0  0  0  0
 18 37  1  0  0  0  0
 19 20  1  0  0  0  0
 19 38  1  0  0  0  0
 20 39  1  0  0  0  0
M  END
> <PUBCHEM_COMPOUND_CID>
17395444

> <PUBCHEM_COMPOUND_CANONICALIZED>
1

> <PUBCHEM_CACTVS_COMPLEXITY>
341

> <PUBCHEM_CACTVS_HBOND_ACCEPTOR>
2

> <PUBCHEM_CACTVS_HBOND_DONOR>
1

> <PUBCHEM_CACTVS_ROTATABLE_BOND>
2

> <PUBCHEM_CACTVS_SUBSKEYS>
AAADceB7IAAAAAAAAAAAAAAAAAAAAWAAAAA8QAAAAAAAAAABwAAAHgAYAAAADCjBngQygJNjAACqAyVyUACSBAAmAgAYuSG4ZNgIYLKA1dGUpQhgngCIyYcciICOAAAAAAAAAAAAAAAAAAAAAAAAAAAAAA==

> <PUBCHEM_IUPAC_OPENEYE_NAME>
(2-methyl-1-piperidyl)-(3-phenyl-1H-pyrazol-5-yl)methanone

> <PUBCHEM_IUPAC_CAS_NAME>
(2-methyl-1-piperidinyl)-(3-phenyl-1H-pyrazol-5-yl)methanone

> <PUBCHEM_IUPAC_NAME>
(2-methylpiperidin-1-yl)-(3-phenyl-1H-pyrazol-5-yl)methanone

> <PUBCHEM_IUPAC_SYSTEMATIC_NAME>
(2-methylpiperidin-1-yl)-(3-phenyl-1H-pyrazol-5-yl)methanone

> <PUBCHEM_IUPAC_TRADITIONAL_NAME>
(2-methylpiperidino)-(3-phenyl-1H-pyrazol-5-yl)methanone

> <PUBCHEM_IUPAC_INCHI>
InChI=1S/C16H19N3O/c1-12-7-5-6-10-19(12)16(20)15-11-14(17-18-15)13-8-3-2-4-9-13/h2-4,8-9,11-12H,5-7,10H2,1H3,(H,17,18)

> <PUBCHEM_IUPAC_INCHIKEY>
NAJNFWGUHBWZKT-UHFFFAOYSA-N

> <PUBCHEM_XLOGP3_AA>
2.9

> <PUBCHEM_EXACT_MASS>
269.152812

> <PUBCHEM_MOLECULAR_FORMULA>
C16H19N3O

> <PUBCHEM_MOLECULAR_WEIGHT>
269.34156

> <PUBCHEM_OPENEYE_CAN_SMILES>
CC1CCCCN1C(=O)C2=CC(=NN2)C3=CC=CC=C3

> <PUBCHEM_OPENEYE_ISO_SMILES>
CC1CCCCN1C(=O)C2=CC(=NN2)C3=CC=CC=C3

> <PUBCHEM_CACTVS_TPSA>
49

> <PUBCHEM_MONOISOTOPIC_WEIGHT>
269.152812

> <PUBCHEM_TOTAL_CHARGE>
0

> <PUBCHEM_HEAVY_ATOM_COUNT>
20

> <PUBCHEM_ATOM_DEF_STEREO_COUNT>
0

> <PUBCHEM_ATOM_UDEF_STEREO_COUNT>
1

> <PUBCHEM_BOND_DEF_STEREO_COUNT>
0

> <PUBCHEM_BOND_UDEF_STEREO_COUNT>
0

> <PUBCHEM_ISOTOPIC_ATOM_COUNT>
0

> <PUBCHEM_COMPONENT_COUNT>
1

> <PUBCHEM_CACTVS_TAUTO_COUNT>
4

> <PUBCHEM_COORDINATE_TYPE>
1
5
255

> <PUBCHEM_BONDANNOTATIONS>
12  13  8
13  14  8
15  16  8
15  17  8
16  18  8
17  19  8
18  20  8
19  20  8
3  12  8
3  4  8
4  14  8
5  10  3

$$$$

