12675
  -OEChem-06261207142D

 17 16  0     0  0  0  0  0  0999 V2000
    4.0981    0.8660    0.0000 F   0  0  0  0  0  0  0  0  0  0  0  0
    5.0981   -0.8660    0.0000 F   0  0  0  0  0  0  0  0  0  0  0  0
    4.9641    1.3660    0.0000 F   0  0  0  0  0  0  0  0  0  0  0  0
    5.9641   -0.3660    0.0000 F   0  0  0  0  0  0  0  0  0  0  0  0
    3.2320    0.3660    0.0000 F   0  0  0  0  0  0  0  0  0  0  0  0
    4.2320   -1.3660    0.0000 F   0  0  0  0  0  0  0  0  0  0  0  0
    2.0000   -1.5000    0.0000 F   0  0  0  0  0  0  0  0  0  0  0  0
    7.1962    1.5000    0.0000 F   0  0  0  0  0  0  0  0  0  0  0  0
    2.3660   -0.1340    0.0000 F   0  0  0  0  0  0  0  0  0  0  0  0
    3.3660   -1.8660    0.0000 F   0  0  0  0  0  0  0  0  0  0  0  0
    6.8301    0.1340    0.0000 F   0  0  0  0  0  0  0  0  0  0  0  0
    5.8301    1.8660    0.0000 F   0  0  0  0  0  0  0  0  0  0  0  0
    4.5981    0.0000    0.0000 C   0  0  0  0  0  0  0  0  0  0  0  0
    5.4641    0.5000    0.0000 C   0  0  0  0  0  0  0  0  0  0  0  0
    3.7320   -0.5000    0.0000 C   0  0  0  0  0  0  0  0  0  0  0  0
    6.3301    1.0000    0.0000 C   0  0  0  0  0  0  0  0  0  0  0  0
    2.8660   -1.0000    0.0000 C   0  0  0  0  0  0  0  0  0  0  0  0
  1 13  1  0  0  0  0
  2 13  1  0  0  0  0
  3 14  1  0  0  0  0
  4 14  1  0  0  0  0
  5 15  1  0  0  0  0
  6 15  1  0  0  0  0
  7 17  1  0  0  0  0
  8 16  1  0  0  0  0
  9 17  1  0  0  0  0
 10 17  1  0  0  0  0
 11 16  1  0  0  0  0
 12 16  1  0  0  0  0
 13 14  1  0  0  0  0
 13 15  1  0  0  0  0
 14 16  1  0  0  0  0
 15 17  1  0  0  0  0
M  END
> <PUBCHEM_COMPOUND_CID>
12675

> <PUBCHEM_COMPOUND_CANONICALIZED>
1

> <PUBCHEM_CACTVS_COMPLEXITY>
250

> <PUBCHEM_CACTVS_HBOND_ACCEPTOR>
12

> <PUBCHEM_CACTVS_HBOND_DONOR>
0

> <PUBCHEM_CACTVS_ROTATABLE_BOND>
2

> <PUBCHEM_CACTVS_SUBSKEYS>
AAADcQBgAcAAAAAAAAAAAAAAAAAAAAAAAAAAAAAAAAAAAAAAAAAACQAAAAAACAAAABAAAAAAAAAAAAAAAAAAAAAAAAAAAAAAAAAAAAIAAAAAAAAAAAAAAAAAAAAAAAAAAAAAAAAAAAAAAAAAAAAAAAAAAA==

> <PUBCHEM_IUPAC_OPENEYE_NAME>
1,1,1,2,2,3,3,4,4,5,5,5-dodecafluoropentane

> <PUBCHEM_IUPAC_CAS_NAME>
1,1,1,2,2,3,3,4,4,5,5,5-dodecafluoropentane

> <PUBCHEM_IUPAC_NAME>
1,1,1,2,2,3,3,4,4,5,5,5-dodecafluoropentane

> <PUBCHEM_IUPAC_SYSTEMATIC_NAME>
1,1,1,2,2,3,3,4,4,5,5,5-dodecakis(fluoranyl)pentane

> <PUBCHEM_IUPAC_TRADITIONAL_NAME>
1,1,1,2,2,3,3,4,4,5,5,5-dodecafluoropentane

> <PUBCHEM_IUPAC_INCHI>
InChI=1S/C5F12/c6-1(7,2(8,9)4(12,13)14)3(10,11)5(15,16)17

> <PUBCHEM_IUPAC_INCHIKEY>
NJCBUSHGCBERSK-UHFFFAOYSA-N

> <PUBCHEM_XLOGP3_AA>
4.5

> <PUBCHEM_EXACT_MASS>
287.980839

> <PUBCHEM_MOLECULAR_FORMULA>
C5F12

> <PUBCHEM_MOLECULAR_WEIGHT>
288.034338

> <PUBCHEM_OPENEYE_CAN_SMILES>
C(C(C(F)(F)F)(F)F)(C(C(F)(F)F)(F)F)(F)F

> <PUBCHEM_OPENEYE_ISO_SMILES>
C(C(C(F)(F)F)(F)F)(C(C(F)(F)F)(F)F)(F)F

> <PUBCHEM_CACTVS_TPSA>
0

> <PUBCHEM_MONOISOTOPIC_WEIGHT>
287.980839

> <PUBCHEM_TOTAL_CHARGE>
0

> <PUBCHEM_HEAVY_ATOM_COUNT>
17

> <PUBCHEM_ATOM_DEF_STEREO_COUNT>
0

> <PUBCHEM_ATOM_UDEF_STEREO_COUNT>
0

> <PUBCHEM_BOND_DEF_STEREO_COUNT>
0

> <PUBCHEM_BOND_UDEF_STEREO_COUNT>
0

> <PUBCHEM_ISOTOPIC_ATOM_COUNT>
0

> <PUBCHEM_COMPONENT_COUNT>
1

> <PUBCHEM_CACTVS_TAUTO_COUNT>
1

> <PUBCHEM_COORDINATE_TYPE>
1
5
255

$$$$

