6105
  -OEChem-06261201073D

 24 24  0     1  0  0  0  0  0999 V2000
   -1.3095   -2.9825    0.2693 S   0  0  0  0  0  0  0  0  0  0  0  0
    0.6383   -1.1546    0.2345 O   0  0  0  0  0  0  0  0  0  0  0  0
    0.9577    2.4642   -0.3091 O   0  0  0  0  0  0  0  0  0  0  0  0
   -1.7824    2.1558    0.4716 O   0  0  0  0  0  0  0  0  0  0  0  0
   -2.8806   -0.3414   -0.4622 O   0  0  0  0  0  0  0  0  0  0  0  0
    3.3453   -1.0764   -0.1978 O   0  0  0  0  0  0  0  0  0  0  0  0
    0.4315    1.2610    0.2448 C   0  0  1  0  0  0  0  0  0  0  0  0
   -1.0289    1.1364   -0.1886 C   0  0  1  0  0  0  0  0  0  0  0  0
    1.2404    0.0529   -0.2369 C   0  0  1  0  0  0  0  0  0  0  0  0
   -1.6099   -0.2325    0.1765 C   0  0  2  0  0  0  0  0  0  0  0  0
   -0.6764   -1.3573   -0.2846 C   0  0  2  0  0  0  0  0  0  0  0  0
    2.6745    0.0744    0.2826 C   0  0  0  0  0  0  0  0  0  0  0  0
    0.4861    1.3452    1.3377 H   0  0  0  0  0  0  0  0  0  0  0  0
   -1.1239    1.3282   -1.2651 H   0  0  0  0  0  0  0  0  0  0  0  0
    1.2774    0.0203   -1.3343 H   0  0  0  0  0  0  0  0  0  0  0  0
   -1.7693   -0.2797    1.2619 H   0  0  0  0  0  0  0  0  0  0  0  0
   -0.6338   -1.4038   -1.3794 H   0  0  0  0  0  0  0  0  0  0  0  0
    2.7051    0.0472    1.3769 H   0  0  0  0  0  0  0  0  0  0  0  0
    3.2150    0.9600   -0.0635 H   0  0  0  0  0  0  0  0  0  0  0  0
    0.4063    3.1985    0.0112 H   0  0  0  0  0  0  0  0  0  0  0  0
   -2.6782    2.1516    0.0946 H   0  0  0  0  0  0  0  0  0  0  0  0
   -3.4806    0.2950   -0.0386 H   0  0  0  0  0  0  0  0  0  0  0  0
   -0.3301   -3.7178   -0.2771 H   0  0  0  0  0  0  0  0  0  0  0  0
    2.8541   -1.8554    0.1147 H   0  0  0  0  0  0  0  0  0  0  0  0
  1 11  1  0  0  0  0
  1 23  1  0  0  0  0
  2  9  1  0  0  0  0
  2 11  1  0  0  0  0
  3  7  1  0  0  0  0
  3 20  1  0  0  0  0
  4  8  1  0  0  0  0
  4 21  1  0  0  0  0
  5 10  1  0  0  0  0
  5 22  1  0  0  0  0
  6 12  1  0  0  0  0
  6 24  1  0  0  0  0
  7  8  1  0  0  0  0
  7  9  1  0  0  0  0
  7 13  1  0  0  0  0
  8 10  1  0  0  0  0
  8 14  1  0  0  0  0
  9 12  1  0  0  0  0
  9 15  1  0  0  0  0
 10 11  1  0  0  0  0
 10 16  1  0  0  0  0
 11 17  1  0  0  0  0
 12 18  1  0  0  0  0
 12 19  1  0  0  0  0
M  END
> <PUBCHEM_COMPOUND_CID>
6105

> <PUBCHEM_CONFORMER_RMSD>
0.6

> <PUBCHEM_CONFORMER_DIVERSEORDER>
1
2
3

> <PUBCHEM_MMFF94_PARTIAL_CHARGES>
17
1 -0.41
10 0.28
11 0.51
12 0.28
2 -0.56
20 0.4
21 0.4
22 0.4
23 0.18
24 0.4
3 -0.68
4 -0.68
5 -0.68
6 -0.68
7 0.28
8 0.28
9 0.28

> <PUBCHEM_EFFECTIVE_ROTOR_COUNT>
2.2

> <PUBCHEM_PHARMACOPHORE_FEATURES>
10
1 2 acceptor
1 3 acceptor
1 3 donor
1 4 acceptor
1 4 donor
1 5 acceptor
1 5 donor
1 6 acceptor
1 6 donor
6 2 7 8 9 10 11 rings

> <PUBCHEM_HEAVY_ATOM_COUNT>
12

> <PUBCHEM_ATOM_DEF_STEREO_COUNT>
3

> <PUBCHEM_ATOM_UDEF_STEREO_COUNT>
0

> <PUBCHEM_BOND_DEF_STEREO_COUNT>
0

> <PUBCHEM_BOND_UDEF_STEREO_COUNT>
0

> <PUBCHEM_ISOTOPIC_ATOM_COUNT>
0

> <PUBCHEM_COMPONENT_COUNT>
1

> <PUBCHEM_CACTVS_TAUTO_COUNT>
1

> <PUBCHEM_CONFORMER_ID>
000017D900000001

> <PUBCHEM_MMFF94_ENERGY>
29.6058

> <PUBCHEM_FEATURE_SELFOVERLAP>
50.759

> <PUBCHEM_SHAPE_FINGERPRINT>
12423570 1 11921778016498592197
16945 1 18410569557045463210
193761 8 18123187900833448897
20645476 183 17914588757018400798
20871998 184 18187643561808760958
21040471 1 18337951328183982776
21501502 16 17979354153591057511
2334 1 17834396722217426995
23402539 116 18262534674451950567
23552423 10 17983297019335996422
23559900 14 18189896595348951702
2748010 2 18194398029178330415
5084963 1 18113902666928752337
66348 1 18339083786384547667

> <PUBCHEM_SHAPE_MULTIPOLES>
221.46
3.62
2.83
0.66
1.15
0.03
0.01
-1.58
-0.13
-0.75
0.22
-0.06
0
0.05

> <PUBCHEM_SHAPE_SELFOVERLAP>
429.064

> <PUBCHEM_SHAPE_VOLUME>
136.2

> <PUBCHEM_COORDINATE_TYPE>
2
5
10

$$$$

