7847062
  -OEChem-06241222483D

 46 48  0     0  0  0  0  0  0999 V2000
   -5.9049    2.0779    0.3282 F   0  0  0  0  0  0  0  0  0  0  0  0
    0.3371   -2.1480   -0.4242 O   0  0  0  0  0  0  0  0  0  0  0  0
    0.9196   -2.0901    1.8021 O   0  0  0  0  0  0  0  0  0  0  0  0
   -2.3990   -1.9601   -0.9161 O   0  0  0  0  0  0  0  0  0  0  0  0
    3.5221    1.5851   -0.4633 N   0  0  0  0  0  0  0  0  0  0  0  0
    3.1629   -0.7774   -0.1192 C   0  0  0  0  0  0  0  0  0  0  0  0
    1.8574   -0.5191    0.2732 C   0  0  0  0  0  0  0  0  0  0  0  0
    1.3763    0.7968    0.2995 C   0  0  0  0  0  0  0  0  0  0  0  0
    3.9473    0.3011   -0.4749 C   0  0  0  0  0  0  0  0  0  0  0  0
    2.2547    1.8327   -0.0819 C   0  0  0  0  0  0  0  0  0  0  0  0
    5.3625    0.0965   -0.9075 C   0  0  0  0  0  0  0  0  0  0  0  0
    3.7060   -2.1669   -0.1586 C   0  0  0  0  0  0  0  0  0  0  0  0
    0.0596    1.0915    0.6920 C   0  0  0  0  0  0  0  0  0  0  0  0
    1.0104   -1.6495    0.6537 C   0  0  0  0  0  0  0  0  0  0  0  0
    1.7764    3.1398   -0.0557 C   0  0  0  0  0  0  0  0  0  0  0  0
    6.3383    0.1474    0.2640 C   0  0  0  0  0  0  0  0  0  0  0  0
   -0.3924    2.4079    0.7088 C   0  0  0  0  0  0  0  0  0  0  0  0
    0.4673    3.4330    0.3344 C   0  0  0  0  0  0  0  0  0  0  0  0
   -0.5294   -3.2607   -0.1784 C   0  0  0  0  0  0  0  0  0  0  0  0
   -1.9128   -2.7439    0.1668 C   0  0  0  0  0  0  0  0  0  0  0  0
   -3.2740   -0.9528   -0.6048 C   0  0  0  0  0  0  0  0  0  0  0  0
   -4.1139   -1.0849    0.4953 C   0  0  0  0  0  0  0  0  0  0  0  0
   -3.3134    0.1920   -1.3930 C   0  0  0  0  0  0  0  0  0  0  0  0
   -5.0046   -0.0589    0.8112 C   0  0  0  0  0  0  0  0  0  0  0  0
   -4.2040    1.2179   -1.0769 C   0  0  0  0  0  0  0  0  0  0  0  0
   -5.0497    1.0925    0.0252 C   0  0  0  0  0  0  0  0  0  0  0  0
    5.6313    0.8934   -1.6134 H   0  0  0  0  0  0  0  0  0  0  0  0
    5.4898   -0.8342   -1.4707 H   0  0  0  0  0  0  0  0  0  0  0  0
    4.6800   -2.2330    0.3342 H   0  0  0  0  0  0  0  0  0  0  0  0
    3.0786   -2.9007    0.3546 H   0  0  0  0  0  0  0  0  0  0  0  0
    3.8067   -2.5003   -1.1971 H   0  0  0  0  0  0  0  0  0  0  0  0
   -0.6363    0.3128    0.9929 H   0  0  0  0  0  0  0  0  0  0  0  0
    2.4300    3.9609   -0.3444 H   0  0  0  0  0  0  0  0  0  0  0  0
    6.1302   -0.6278    1.0073 H   0  0  0  0  0  0  0  0  0  0  0  0
    7.3634    0.0077   -0.0939 H   0  0  0  0  0  0  0  0  0  0  0  0
    6.2879    1.1163    0.7731 H   0  0  0  0  0  0  0  0  0  0  0  0
   -1.4106    2.6315    1.0124 H   0  0  0  0  0  0  0  0  0  0  0  0
    0.1229    4.4630    0.3444 H   0  0  0  0  0  0  0  0  0  0  0  0
   -0.1338   -3.9194    0.6026 H   0  0  0  0  0  0  0  0  0  0  0  0
   -0.5652   -3.8356   -1.1098 H   0  0  0  0  0  0  0  0  0  0  0  0
   -2.5900   -3.5884    0.3352 H   0  0  0  0  0  0  0  0  0  0  0  0
   -1.8307   -2.1479    1.0844 H   0  0  0  0  0  0  0  0  0  0  0  0
   -4.1306   -1.9756    1.1156 H   0  0  0  0  0  0  0  0  0  0  0  0
   -2.6552    0.2943   -2.2512 H   0  0  0  0  0  0  0  0  0  0  0  0
   -5.6678   -0.1583    1.6655 H   0  0  0  0  0  0  0  0  0  0  0  0
   -4.2384    2.1149   -1.6881 H   0  0  0  0  0  0  0  0  0  0  0  0
  1 26  1  0  0  0  0
  2 14  1  0  0  0  0
  2 19  1  0  0  0  0
  3 14  2  0  0  0  0
  4 20  1  0  0  0  0
  4 21  1  0  0  0  0
  5  9  2  0  0  0  0
  5 10  1  0  0  0  0
  6  7  2  0  0  0  0
  6  9  1  0  0  0  0
  6 12  1  0  0  0  0
  7  8  1  0  0  0  0
  7 14  1  0  0  0  0
  8 10  1  0  0  0  0
  8 13  2  0  0  0  0
  9 11  1  0  0  0  0
 10 15  2  0  0  0  0
 11 16  1  0  0  0  0
 11 27  1  0  0  0  0
 11 28  1  0  0  0  0
 12 29  1  0  0  0  0
 12 30  1  0  0  0  0
 12 31  1  0  0  0  0
 13 17  1  0  0  0  0
 13 32  1  0  0  0  0
 15 18  1  0  0  0  0
 15 33  1  0  0  0  0
 16 34  1  0  0  0  0
 16 35  1  0  0  0  0
 16 36  1  0  0  0  0
 17 18  2  0  0  0  0
 17 37  1  0  0  0  0
 18 38  1  0  0  0  0
 19 20  1  0  0  0  0
 19 39  1  0  0  0  0
 19 40  1  0  0  0  0
 20 41  1  0  0  0  0
 20 42  1  0  0  0  0
 21 22  2  0  0  0  0
 21 23  1  0  0  0  0
 22 24  1  0  0  0  0
 22 43  1  0  0  0  0
 23 25  2  0  0  0  0
 23 44  1  0  0  0  0
 24 26  2  0  0  0  0
 24 45  1  0  0  0  0
 25 26  1  0  0  0  0
 25 46  1  0  0  0  0
M  END
> <PUBCHEM_COMPOUND_CID>
7847062

> <PUBCHEM_CONFORMER_RMSD>
0.8

> <PUBCHEM_CONFORMER_DIVERSEORDER>
1
194
218
216
166
20
102
152
2
32
39
200
238
242
164
87
185
217
105
168
114
125
34
241
113
132
159
202
189
61
214
160
195
62
14
119
206
21
68
180
137
222
104
240
28
146
90
153
190
207
174
18
224
27
19
197
173
17
65
245
96
213
227
161
229
25
205
38
75
50
101
211
140
121
233
26
135
89
78
150
201
175
7
158
188
109
215
10
73
98
83
231
225
123
92
60
45
193
139
86
35
93
244
130
64
77
41
115
209
53
163
149
208
30
54
171
95
136
203
204
148
59
79
57
107
151
70
199
172
110
235
51
243
155
67
142
16
147
183
226
154
33
157
220
24
198
128
144
167
69
129
58
80
36
46
181
117
170
15
29
71
94
97
13
133
116
91
234
12
55
106
122
145
221
6
184
186
63
239
3
232
85
22
162
31
156
52
11
44
212
4
126
100
191
176
8
182
187
138
5
228
127
143
120
9
84
88
42
131
169
76
81
134
118
111
165
141
223
178
196
103
49
74
124
230
37
177
192
47
40
236
66
108
82
23
112
179
237
56
43
219
99
72
48
210

> <PUBCHEM_MMFF94_PARTIAL_CHARGES>
32
1 -0.19
10 0.31
11 0.14
12 0.14
13 -0.15
14 0.63
15 -0.15
17 -0.15
18 -0.15
19 0.28
2 -0.43
20 0.28
21 0.08
22 -0.15
23 -0.15
24 -0.15
25 -0.15
26 0.19
3 -0.57
32 0.15
33 0.15
37 0.15
38 0.15
4 -0.36
43 0.15
44 0.15
45 0.15
46 0.15
5 -0.62
6 -0.14
7 0.09
9 0.17

> <PUBCHEM_EFFECTIVE_ROTOR_COUNT>
7

> <PUBCHEM_PHARMACOPHORE_FEATURES>
7
1 16 hydrophobe
1 3 acceptor
1 4 acceptor
1 5 acceptor
6 21 22 23 24 25 26 rings
6 5 6 7 8 9 10 rings
6 8 10 13 15 17 18 rings

> <PUBCHEM_HEAVY_ATOM_COUNT>
26

> <PUBCHEM_ATOM_DEF_STEREO_COUNT>
0

> <PUBCHEM_ATOM_UDEF_STEREO_COUNT>
0

> <PUBCHEM_BOND_DEF_STEREO_COUNT>
0

> <PUBCHEM_BOND_UDEF_STEREO_COUNT>
0

> <PUBCHEM_ISOTOPIC_ATOM_COUNT>
0

> <PUBCHEM_COMPONENT_COUNT>
1

> <PUBCHEM_CACTVS_TAUTO_COUNT>
2

> <PUBCHEM_CONFORMER_ID>
0077BC9600000001

> <PUBCHEM_MMFF94_ENERGY>
82.288

> <PUBCHEM_FEATURE_SELFOVERLAP>
35.552

> <PUBCHEM_SHAPE_FINGERPRINT>
10906281 52 18339631232424051584
1100329 8 18410575042109304856
11578080 2 14475524047536467724
116883 192 18189046659358607094
12422481 6 18194714547320814984
12553582 1 18337404828224726733
12788726 201 18042120015375577256
12838862 33 18265070152967010745
13402501 40 18413386553687133637
1361 2 16177638849031663985
14713325 29 16906364846626987248
14765038 42 18260815021318595225
14790565 3 18337946882798477057
14931854 50 18410864286623695989
15081414 286 18334283297327652334
15238133 3 18341325609701413294
15484559 13 16031556647506704804
1601671 61 18410014334149839478
16087824 20 18337949116350444913
18769570 83 18342462517509156394
19311894 1 18334857173751851215
20465049 17 18411698756062325523
20775438 99 16236788683761243839
221357 26 18192997023937395335
23402539 116 18260832588061370046
23559900 14 18261957324349054304
238 59 17836694886693443663
335352 9 18410009914707399204
338550 245 18341888563412199156
3680242 22 18342742965719788250
5081480 168 17389624735661293695
6287921 2 17697033635501853565
7226269 152 18411705366090704344
7399639 24 16891738026083154210

> <PUBCHEM_SHAPE_MULTIPOLES>
505.21
11.62
3.77
1.03
2.21
0.34
-0.01
2.04
1.38
0.25
-0.37
0.4
-0.14
-0.12

> <PUBCHEM_SHAPE_SELFOVERLAP>
1096.111

> <PUBCHEM_SHAPE_VOLUME>
278.6

> <PUBCHEM_COORDINATE_TYPE>
2
5
10

$$$$

