10432
  -OEChem-06261204323D

 11 11  0     0  0  0  0  0  0999 V2000
   -2.6151   -0.6319   -0.0006 S   0  0  0  0  0  0  0  0  0  0  0  0
    2.3168   -0.6667   -0.0008 O   0  0  0  0  0  0  0  0  0  0  0  0
    0.0049   -0.9167    0.0009 N   0  0  0  0  0  0  0  0  0  0  0  0
   -0.6838    1.2321    0.0001 N   0  0  0  0  0  0  0  0  0  0  0  0
    0.7994    1.2320   -0.0001 C   0  0  0  0  0  0  0  0  0  0  0  0
    1.1791   -0.2269    0.0004 C   0  0  0  0  0  0  0  0  0  0  0  0
   -1.0014   -0.0219    0.0002 C   0  0  0  0  0  0  0  0  0  0  0  0
    1.1793    1.7209    0.9008 H   0  0  0  0  0  0  0  0  0  0  0  0
    1.1791    1.7203   -0.9015 H   0  0  0  0  0  0  0  0  0  0  0  0
   -0.0886   -1.9253    0.0008 H   0  0  0  0  0  0  0  0  0  0  0  0
   -2.3091   -1.9373   -0.0001 H   0  0  0  0  0  0  0  0  0  0  0  0
  1  7  1  0  0  0  0
  1 11  1  0  0  0  0
  2  6  2  0  0  0  0
  3  6  1  0  0  0  0
  3  7  1  0  0  0  0
  3 10  1  0  0  0  0
  4  5  1  0  0  0  0
  4  7  2  0  0  0  0
  5  6  1  0  0  0  0
  5  8  1  0  0  0  0
  5  9  1  0  0  0  0
M  END
> <PUBCHEM_COMPOUND_CID>
10432

> <PUBCHEM_CONFORMER_RMSD>
0.4

> <PUBCHEM_CONFORMER_DIVERSEORDER>
1

> <PUBCHEM_MMFF94_PARTIAL_CHARGES>
9
1 -0.32
10 0.37
11 0.18
2 -0.57
3 -0.49
4 -0.7
5 0.31
6 0.57
7 0.65

> <PUBCHEM_EFFECTIVE_ROTOR_COUNT>
0.4

> <PUBCHEM_PHARMACOPHORE_FEATURES>
3
1 2 acceptor
1 3 donor
5 3 4 5 6 7 rings

> <PUBCHEM_HEAVY_ATOM_COUNT>
7

> <PUBCHEM_ATOM_DEF_STEREO_COUNT>
0

> <PUBCHEM_ATOM_UDEF_STEREO_COUNT>
0

> <PUBCHEM_BOND_DEF_STEREO_COUNT>
0

> <PUBCHEM_BOND_UDEF_STEREO_COUNT>
0

> <PUBCHEM_ISOTOPIC_ATOM_COUNT>
0

> <PUBCHEM_COMPONENT_COUNT>
1

> <PUBCHEM_CACTVS_TAUTO_COUNT>
5

> <PUBCHEM_CONFORMER_ID>
000028C000000001

> <PUBCHEM_MMFF94_ENERGY>
6.8242

> <PUBCHEM_FEATURE_SELFOVERLAP>
15.223

> <PUBCHEM_SHAPE_FINGERPRINT>
16714656 1 18408601491419451622
20096714 4 18121216485196113409
21040471 1 17978510823713912801
23552423 10 18056468689447245854
29004967 10 18411980230627495275
5460574 1 9295290538382253443

> <PUBCHEM_SHAPE_MULTIPOLES>
132.07
2.97
1.23
0.59
1.13
0.3
0
-0.91
0
-0.23
0
0.06
0
0

> <PUBCHEM_SHAPE_SELFOVERLAP>
259.92

> <PUBCHEM_SHAPE_VOLUME>
81.8

> <PUBCHEM_COORDINATE_TYPE>
2
5
10

$$$$

