586283
  -OEChem-06241222463D

 31 32  0     0  0  0  0  0  0999 V2000
    5.3091    0.3356    1.4056 S   0  0  0  0  0  0  0  0  0  0  0  0
   -0.5459    0.2780   -0.8677 O   0  0  0  0  0  0  0  0  0  0  0  0
   -2.7545   -2.9248    0.3590 O   0  5  0  0  0  0  0  0  0  0  0  0
   -0.8307   -2.1131   -0.3187 O   0  0  0  0  0  0  0  0  0  0  0  0
    0.0129    0.7205    1.3603 O   0  0  0  0  0  0  0  0  0  0  0  0
   -2.0403   -1.9675   -0.0225 N   0  3  0  0  0  0  0  0  0  0  0  0
   -4.5528    0.7588    0.1125 C   0  0  0  0  0  0  0  0  0  0  0  0
   -2.6215   -0.6736   -0.1228 C   0  0  0  0  0  0  0  0  0  0  0  0
   -1.8625    0.4187   -0.5425 C   0  0  0  0  0  0  0  0  0  0  0  0
   -3.9668   -0.5037    0.2047 C   0  0  0  0  0  0  0  0  0  0  0  0
   -3.7938    1.8511   -0.3071 C   0  0  0  0  0  0  0  0  0  0  0  0
   -2.4486    1.6810   -0.6347 C   0  0  0  0  0  0  0  0  0  0  0  0
   -5.9910    0.9408    0.4629 C   0  0  0  0  0  0  0  0  0  0  0  0
    4.1117    0.2172    0.2024 C   0  0  0  0  0  0  0  0  0  0  0  0
    0.3285    0.4590    0.2097 C   0  0  0  0  0  0  0  0  0  0  0  0
    2.7387    0.3898    0.5770 C   0  0  0  0  0  0  0  0  0  0  0  0
    1.7157    0.2790   -0.2831 C   0  0  0  0  0  0  0  0  0  0  0  0
    4.6143   -0.0396   -1.0392 C   0  0  0  0  0  0  0  0  0  0  0  0
    6.0349   -0.1451   -1.0115 C   0  0  0  0  0  0  0  0  0  0  0  0
    6.5427    0.0379    0.2559 C   0  0  0  0  0  0  0  0  0  0  0  0
   -4.5824   -1.3381    0.5330 H   0  0  0  0  0  0  0  0  0  0  0  0
   -4.2384    2.8397   -0.3851 H   0  0  0  0  0  0  0  0  0  0  0  0
   -1.8639    2.5366   -0.9619 H   0  0  0  0  0  0  0  0  0  0  0  0
   -6.2646    0.3212    1.3237 H   0  0  0  0  0  0  0  0  0  0  0  0
   -6.2086    1.9795    0.7337 H   0  0  0  0  0  0  0  0  0  0  0  0
   -6.6226    0.6643   -0.3871 H   0  0  0  0  0  0  0  0  0  0  0  0
    2.5300    0.6143    1.6212 H   0  0  0  0  0  0  0  0  0  0  0  0
    1.8439    0.0528   -1.3353 H   0  0  0  0  0  0  0  0  0  0  0  0
    4.0307   -0.1521   -1.9439 H   0  0  0  0  0  0  0  0  0  0  0  0
    6.6531   -0.3447   -1.8770 H   0  0  0  0  0  0  0  0  0  0  0  0
    7.5791    0.0112    0.5616 H   0  0  0  0  0  0  0  0  0  0  0  0
  1 14  1  0  0  0  0
  1 20  1  0  0  0  0
  2  9  1  0  0  0  0
  2 15  1  0  0  0  0
  3  6  1  0  0  0  0
  4  6  2  0  0  0  0
  5 15  2  0  0  0  0
  6  8  1  0  0  0  0
  7 10  2  0  0  0  0
  7 11  1  0  0  0  0
  7 13  1  0  0  0  0
  8  9  2  0  0  0  0
  8 10  1  0  0  0  0
  9 12  1  0  0  0  0
 10 21  1  0  0  0  0
 11 12  2  0  0  0  0
 11 22  1  0  0  0  0
 12 23  1  0  0  0  0
 13 24  1  0  0  0  0
 13 25  1  0  0  0  0
 13 26  1  0  0  0  0
 14 16  1  0  0  0  0
 14 18  2  0  0  0  0
 15 17  1  0  0  0  0
 16 17  2  0  0  0  0
 16 27  1  0  0  0  0
 17 28  1  0  0  0  0
 18 19  1  0  0  0  0
 18 29  1  0  0  0  0
 19 20  2  0  0  0  0
 19 30  1  0  0  0  0
 20 31  1  0  0  0  0
M  CHG  2   3  -1   6   1
M  END
> <PUBCHEM_COMPOUND_CID>
586283

> <PUBCHEM_CONFORMER_RMSD>
0.8

> <PUBCHEM_CONFORMER_DIVERSEORDER>
2
45
42
25
17
30
14
32
46
15
29
1
40
44
10
24
9
22
18
20
35
38
39
4
41
19
5
31
3
34
21
23
33
47
28
16
26
27
12
11
43
8
36
37
7
13
6

> <PUBCHEM_MMFF94_PARTIAL_CHARGES>
28
1 -0.08
10 -0.15
11 -0.15
12 -0.15
13 0.14
14 -0.01
15 0.71
16 -0.11
17 -0.14
18 -0.15
19 -0.15
2 -0.23
20 -0.11
21 0.15
22 0.15
23 0.15
27 0.15
28 0.15
29 0.15
3 -0.52
30 0.15
31 0.15
4 -0.52
5 -0.57
6 0.91
7 -0.14
8 0.13
9 0.08

> <PUBCHEM_EFFECTIVE_ROTOR_COUNT>
5

> <PUBCHEM_PHARMACOPHORE_FEATURES>
6
1 3 acceptor
1 3 anion
1 4 acceptor
1 5 acceptor
5 1 14 18 19 20 rings
6 7 8 9 10 11 12 rings

> <PUBCHEM_HEAVY_ATOM_COUNT>
20

> <PUBCHEM_ATOM_DEF_STEREO_COUNT>
0

> <PUBCHEM_ATOM_UDEF_STEREO_COUNT>
0

> <PUBCHEM_BOND_DEF_STEREO_COUNT>
0

> <PUBCHEM_BOND_UDEF_STEREO_COUNT>
1

> <PUBCHEM_ISOTOPIC_ATOM_COUNT>
0

> <PUBCHEM_COMPONENT_COUNT>
1

> <PUBCHEM_CACTVS_TAUTO_COUNT>
1

> <PUBCHEM_CONFORMER_ID>
0008F22B00000002

> <PUBCHEM_MMFF94_ENERGY>
60.2714

> <PUBCHEM_FEATURE_SELFOVERLAP>
30.528

> <PUBCHEM_SHAPE_FINGERPRINT>
10912923 1 17632864105701195592
11405975 8 18338802221635829008
11524674 6 17821731636866757662
12166972 35 5039656089112289955
12236239 1 17346597478095339124
12390115 104 18191017001286013705
12616971 3 17131839755215559806
13167823 11 17989211451891770554
13533116 47 17822854316144077334
13675066 3 17967537827002997912
13914758 101 14852155286655936355
14386348 63 17822005402819789414
14617045 38 18410852183395571874
15042514 8 18269550547334337451
15348495 7 18188217498878921144
15375358 24 17821730537692141838
15537594 2 17703794721389373114
16988056 13 15032063216296827676
17804303 29 18410292467515328333
17844677 252 18410571765323908896
1813 80 16343416314924103878
19489759 90 18187366544828592737
200 152 15140962876558488248
20645477 56 18412266155085024373
20645477 70 16588020260556600940
20681677 155 18413110558698380762
21033648 29 17603883169409940538
21033650 10 17772169059339304204
21279426 13 17898283055196630236
220451 1 17988926674211764242
2215653 11 17821726161178444222
22224240 67 18409164438101350705
2297311 6 18410004455313914053
23035841 295 18342176687535756354
23175994 123 17458343022269346145
23198884 109 16443066119022429961
23402539 116 18335146388454736901
23536379 177 18201720687010619728
23557571 272 18260822748318285972
23559900 14 18187368701598501480
23622692 88 18202283602329983469
26918003 58 17967814938361390840
2838139 119 15647328693603525345
3004659 81 18341610482351065670
34797466 226 18334848408277618428
3545911 37 18408322211577146116
4073 2 18342174420030622042
4214541 1 18411420596568310828
4325135 7 14189568633276371690
5104073 3 18268995293471635848
5364581 5 18047206159014366464
5385378 56 18262790908259491739
542803 24 17560799940236769212
7226269 152 18040714796555200129

> <PUBCHEM_SHAPE_MULTIPOLES>
386.98
15.14
1.75
1.03
14.29
1.3
-0.11
-2.59
-0.81
-2.87
0.01
1.11
-0.14
0.46

> <PUBCHEM_SHAPE_SELFOVERLAP>
818.534

> <PUBCHEM_SHAPE_VOLUME>
217.2

> <PUBCHEM_COORDINATE_TYPE>
2
5
10

$$$$

