5474
  -OEChem-06261200423D

 46 47  0     1  0  0  0  0  0999 V2000
    0.3510   -1.2367   -1.2611 O   0  0  0  0  0  0  0  0  0  0  0  0
    2.8037   -2.1034   -2.3129 O   0  0  0  0  0  0  0  0  0  0  0  0
   -4.2395   -0.0523    1.4537 O   0  0  0  0  0  0  0  0  0  0  0  0
    2.9899   -0.2441    0.8831 N   0  0  0  0  0  0  0  0  0  0  0  0
   -2.5632   -1.5856    0.9312 N   0  0  0  0  0  0  0  0  0  0  0  0
    3.4472    1.1023    1.1988 C   0  0  0  0  0  0  0  0  0  0  0  0
    3.0837   -0.5040   -0.5470 C   0  0  0  0  0  0  0  0  0  0  0  0
    2.6188   -1.9171   -0.9067 C   0  0  1  0  0  0  0  0  0  0  0  0
    2.5743    2.1228    0.4590 C   0  0  0  0  0  0  0  0  0  0  0  0
    4.9076    1.2384    0.7549 C   0  0  0  0  0  0  0  0  0  0  0  0
    3.3361    1.3136    2.7126 C   0  0  0  0  0  0  0  0  0  0  0  0
    1.1524   -2.1750   -0.5677 C   0  0  0  0  0  0  0  0  0  0  0  0
   -0.8056   -0.9685   -0.5646 C   0  0  0  0  0  0  0  0  0  0  0  0
   -1.3910    0.3662   -0.7232 C   0  0  0  0  0  0  0  0  0  0  0  0
   -2.5712    0.6776   -0.0277 C   0  0  0  0  0  0  0  0  0  0  0  0
   -1.4022   -1.8612    0.2346 C   0  0  0  0  0  0  0  0  0  0  0  0
   -3.2072   -0.3429    0.8535 C   0  0  0  0  0  0  0  0  0  0  0  0
   -0.8136    1.3441   -1.5459 C   0  0  0  0  0  0  0  0  0  0  0  0
   -3.1590    1.9429   -0.1548 C   0  0  0  0  0  0  0  0  0  0  0  0
   -3.1393   -2.6249    1.7779 C   0  0  0  0  0  0  0  0  0  0  0  0
   -1.4015    2.6047   -1.6708 C   0  0  0  0  0  0  0  0  0  0  0  0
   -2.5713    2.9030   -0.9768 C   0  0  0  0  0  0  0  0  0  0  0  0
    2.0256   -0.3554    1.1933 H   0  0  0  0  0  0  0  0  0  0  0  0
    2.4995    0.1980   -1.1501 H   0  0  0  0  0  0  0  0  0  0  0  0
    4.1150   -0.4378   -0.9092 H   0  0  0  0  0  0  0  0  0  0  0  0
    3.2461   -2.6594   -0.3998 H   0  0  0  0  0  0  0  0  0  0  0  0
    2.7696    2.1731   -0.6170 H   0  0  0  0  0  0  0  0  0  0  0  0
    1.5062    1.9281    0.6110 H   0  0  0  0  0  0  0  0  0  0  0  0
    2.7680    3.1322    0.8432 H   0  0  0  0  0  0  0  0  0  0  0  0
    5.0306    1.3311   -0.3293 H   0  0  0  0  0  0  0  0  0  0  0  0
    5.5200    0.3990    1.1058 H   0  0  0  0  0  0  0  0  0  0  0  0
    5.3474    2.1488    1.1815 H   0  0  0  0  0  0  0  0  0  0  0  0
    3.6816    2.3134    2.9994 H   0  0  0  0  0  0  0  0  0  0  0  0
    2.2997    1.2123    3.0558 H   0  0  0  0  0  0  0  0  0  0  0  0
    3.9427    0.5846    3.2629 H   0  0  0  0  0  0  0  0  0  0  0  0
    1.0527   -2.1312    0.5245 H   0  0  0  0  0  0  0  0  0  0  0  0
    0.8807   -3.1804   -0.9136 H   0  0  0  0  0  0  0  0  0  0  0  0
    2.2132   -1.4832   -2.7742 H   0  0  0  0  0  0  0  0  0  0  0  0
   -1.0389   -2.8735    0.3723 H   0  0  0  0  0  0  0  0  0  0  0  0
    0.1001    1.1440   -2.1005 H   0  0  0  0  0  0  0  0  0  0  0  0
   -4.0714    2.1991    0.3766 H   0  0  0  0  0  0  0  0  0  0  0  0
   -4.0476   -2.2842    2.2817 H   0  0  0  0  0  0  0  0  0  0  0  0
   -2.4043   -2.9136    2.5359 H   0  0  0  0  0  0  0  0  0  0  0  0
   -3.3861   -3.4920    1.1570 H   0  0  0  0  0  0  0  0  0  0  0  0
   -0.9442    3.3541   -2.3106 H   0  0  0  0  0  0  0  0  0  0  0  0
   -3.0260    3.8844   -1.0759 H   0  0  0  0  0  0  0  0  0  0  0  0
  1 12  1  0  0  0  0
  1 13  1  0  0  0  0
  2  8  1  0  0  0  0
  2 38  1  0  0  0  0
  3 17  2  0  0  0  0
  4  6  1  0  0  0  0
  4  7  1  0  0  0  0
  4 23  1  0  0  0  0
  5 16  1  0  0  0  0
  5 17  1  0  0  0  0
  5 20  1  0  0  0  0
  6  9  1  0  0  0  0
  6 10  1  0  0  0  0
  6 11  1  0  0  0  0
  7  8  1  0  0  0  0
  7 24  1  0  0  0  0
  7 25  1  0  0  0  0
  8 12  1  0  0  0  0
  8 26  1  0  0  0  0
  9 27  1  0  0  0  0
  9 28  1  0  0  0  0
  9 29  1  0  0  0  0
 10 30  1  0  0  0  0
 10 31  1  0  0  0  0
 10 32  1  0  0  0  0
 11 33  1  0  0  0  0
 11 34  1  0  0  0  0
 11 35  1  0  0  0  0
 12 36  1  0  0  0  0
 12 37  1  0  0  0  0
 13 14  1  0  0  0  0
 13 16  2  0  0  0  0
 14 15  1  0  0  0  0
 14 18  2  0  0  0  0
 15 17  1  0  0  0  0
 15 19  2  0  0  0  0
 16 39  1  0  0  0  0
 18 21  1  0  0  0  0
 18 40  1  0  0  0  0
 19 22  1  0  0  0  0
 19 41  1  0  0  0  0
 20 42  1  0  0  0  0
 20 43  1  0  0  0  0
 20 44  1  0  0  0  0
 21 22  2  0  0  0  0
 21 45  1  0  0  0  0
 22 46  1  0  0  0  0
M  END
> <PUBCHEM_COMPOUND_CID>
5474

> <PUBCHEM_CONFORMER_RMSD>
0.8

> <PUBCHEM_CONFORMER_DIVERSEORDER>
5
90
131
153
63
158
13
130
6
107
146
33
119
102
27
134
115
7
137
116
78
135
141
86
100
132
70
81
4
125
120
92
123
111
69
118
89
121
76
9
73
149
19
143
128
36
109
80
47
55
87
77
147
83
139
12
154
98
93
52
39
91
156
62
148
46
108
38
79
152
157
142
23
53
3
104
151
113
37
41
64
112
10
49
124
88
56
85
34
50
30
94
106
43
2
99
48
160
60
40
97
42
103
74
110
72
20
28
45
25
127
18
84
71
67
35
95
29
51
57
138
17
54
144
26
8
140
155
61
14
15
75
32
66
101
65
24
16
150
126
117
136
31
68
21
105
133
59
114
159
1
82
96
58
122
44
145
22
129
11

> <PUBCHEM_MMFF94_PARTIAL_CHARGES>
26
1 -0.36
12 0.28
13 0.05
14 0.03
15 0.09
16 -0.04
17 0.54
18 -0.15
19 -0.15
2 -0.68
20 0.3
21 -0.15
22 -0.15
23 0.36
3 -0.57
38 0.4
39 0.15
4 -0.9
40 0.15
41 0.15
45 0.15
46 0.15
5 -0.47
6 0.27
7 0.27
8 0.28

> <PUBCHEM_EFFECTIVE_ROTOR_COUNT>
6

> <PUBCHEM_PHARMACOPHORE_FEATURES>
9
1 1 acceptor
1 2 acceptor
1 2 donor
1 3 acceptor
1 4 cation
1 4 donor
4 6 9 10 11 hydrophobe
6 14 15 18 19 21 22 rings
6 5 13 14 15 16 17 rings

> <PUBCHEM_HEAVY_ATOM_COUNT>
22

> <PUBCHEM_ATOM_DEF_STEREO_COUNT>
0

> <PUBCHEM_ATOM_UDEF_STEREO_COUNT>
1

> <PUBCHEM_BOND_DEF_STEREO_COUNT>
0

> <PUBCHEM_BOND_UDEF_STEREO_COUNT>
0

> <PUBCHEM_ISOTOPIC_ATOM_COUNT>
0

> <PUBCHEM_COMPONENT_COUNT>
1

> <PUBCHEM_CACTVS_TAUTO_COUNT>
1

> <PUBCHEM_CONFORMER_ID>
0000156200000005

> <PUBCHEM_MMFF94_ENERGY>
56.9579

> <PUBCHEM_FEATURE_SELFOVERLAP>
45.696

> <PUBCHEM_SHAPE_FINGERPRINT>
10165383 225 17897150352430673744
10319926 262 18272376425303692514
10366900 7 18267015240275337711
1100329 8 15815658756479431156
11221954 11 18191886693218149468
11595378 159 17632857537999854832
11640471 11 15719687506060433812
12553582 1 17915998223815011387
12596602 18 16558464206585281640
12633257 1 18269844270797816256
12670545 47 18339637944708660919
13083527 12 17692241946801188315
13402501 40 18336831978239689432
13726171 33 18271228475014387164
14081887 123 18273214196849292011
14178342 30 17989204871358703906
14932701 244 14638563943364798616
15295992 7 18120661485090000566
15475509 84 15098164781632720241
15806764 133 17971737016064073998
173720 79 16199594735566551205
18219364 16 18113625564487283368
18981168 100 18041012751294661634
19049666 15 18194402418682269342
19930381 70 17749966470109009065
21421861 104 17194007048830638483
23175994 123 17608924623339085958
23557571 272 18343017779054386315
23559900 14 18057311997385207551
238 59 17606151530311927492
3187 122 18128826252506340153
3524813 1 18336540616121403054
469060 322 17901412016059858191
49207404 50 18408039602386164904
6049 1 18336254743145777686
621550 5 17758067761903247758
7097593 13 17488201454991562008
81228 2 18131063861985540999
84936 182 16830665137517862029
90316 7 17989208122965159309
9862522 239 18117304500677255776

> <PUBCHEM_SHAPE_MULTIPOLES>
425.18
7.97
3.34
2.02
4.65
0.3
0.39
1.62
3.99
-1.62
-0.69
1.08
-0.21
3.42

> <PUBCHEM_SHAPE_SELFOVERLAP>
886.875

> <PUBCHEM_SHAPE_VOLUME>
243.4

> <PUBCHEM_COORDINATE_TYPE>
2
5
10

$$$$

