12919
  -OEChem-06261207322D

 31 32  0     0  0  0  0  0  0999 V2000
   10.4179    3.0065    0.0000 O   0  0  0  0  0  0  0  0  0  0  0  0
    8.9178   -1.3237    0.0000 O   0  0  0  0  0  0  0  0  0  0  0  0
    6.1075   -3.0065    0.0000 O   0  0  0  0  0  0  0  0  0  0  0  0
    2.0000   -0.9531    0.0000 O   0  0  0  0  0  0  0  0  0  0  0  0
    9.9178    2.1404    0.0000 N   0  0  0  0  0  0  0  0  0  0  0  0
    6.9178   -1.3237    0.0000 N   0  0  0  0  0  0  0  0  0  0  0  0
    7.4178   -0.4576    0.0000 N   0  0  0  0  0  0  0  0  0  0  0  0
    2.8262   -0.3898    0.0000 N   0  0  0  0  0  0  0  0  0  0  0  0
    8.9178    0.4084    0.0000 C   0  0  0  0  0  0  0  0  0  0  0  0
    8.4178    1.2744    0.0000 C   0  0  0  0  0  0  0  0  0  0  0  0
    9.9178    0.4084    0.0000 C   0  0  0  0  0  0  0  0  0  0  0  0
    8.9178    2.1404    0.0000 C   0  0  0  0  0  0  0  0  0  0  0  0
   10.4179    1.2744    0.0000 C   0  0  0  0  0  0  0  0  0  0  0  0
    5.9178   -1.3237    0.0000 C   0  0  0  0  0  0  0  0  0  0  0  0
    8.4178   -0.4576    0.0000 C   0  0  0  0  0  0  0  0  0  0  0  0
    5.4840   -0.4227    0.0000 C   0  0  0  0  0  0  0  0  0  0  0  0
    5.4840   -2.2246    0.0000 C   0  0  0  0  0  0  0  0  0  0  0  0
    4.5090   -0.2002    0.0000 C   0  0  0  0  0  0  0  0  0  0  0  0
    3.7272   -0.8237    0.0000 C   0  0  0  0  0  0  0  0  0  0  0  0
    4.5090   -2.4472    0.0000 C   0  0  0  0  0  0  0  0  0  0  0  0
    3.7272   -1.8237    0.0000 C   0  0  0  0  0  0  0  0  0  0  0  0
    7.7978    1.2744    0.0000 H   0  0  0  0  0  0  0  0  0  0  0  0
   10.2279   -0.1285    0.0000 H   0  0  0  0  0  0  0  0  0  0  0  0
    8.6078    2.6774    0.0000 H   0  0  0  0  0  0  0  0  0  0  0  0
   11.0379    1.2744    0.0000 H   0  0  0  0  0  0  0  0  0  0  0  0
    5.8705    0.0620    0.0000 H   0  0  0  0  0  0  0  0  0  0  0  0
    4.3711    0.4043    0.0000 H   0  0  0  0  0  0  0  0  0  0  0  0
    4.3711   -3.0516    0.0000 H   0  0  0  0  0  0  0  0  0  0  0  0
    3.1686   -2.0927    0.0000 H   0  0  0  0  0  0  0  0  0  0  0  0
   11.0379    3.0065    0.0000 H   0  0  0  0  0  0  0  0  0  0  0  0
    8.6078   -1.8606    0.0000 H   0  0  0  0  0  0  0  0  0  0  0  0
  1  5  1  0  0  0  0
  1 30  1  0  0  0  0
  2 15  1  0  0  0  0
  2 31  1  0  0  0  0
  3 17  2  0  0  0  0
  4  8  2  0  0  0  0
  5 12  1  0  0  0  0
  5 13  1  0  0  0  0
  6  7  2  0  0  0  0
  6 14  1  0  0  0  0
  7 15  1  0  0  0  0
  8 19  1  0  0  0  0
  9 10  1  0  0  0  0
  9 11  1  0  0  0  0
  9 15  2  0  0  0  0
 10 12  2  0  0  0  0
 10 22  1  0  0  0  0
 11 13  2  0  0  0  0
 11 23  1  0  0  0  0
 12 24  1  0  0  0  0
 13 25  1  0  0  0  0
 14 16  2  0  0  0  0
 14 17  1  0  0  0  0
 16 18  1  0  0  0  0
 16 26  1  0  0  0  0
 17 20  1  0  0  0  0
 18 19  2  0  0  0  0
 18 27  1  0  0  0  0
 19 21  1  0  0  0  0
 20 21  2  0  0  0  0
 20 28  1  0  0  0  0
 21 29  1  0  0  0  0
M  END
> <PUBCHEM_COMPOUND_CID>
12919

> <PUBCHEM_COMPOUND_CANONICALIZED>
1

> <PUBCHEM_CACTVS_COMPLEXITY>
664

> <PUBCHEM_CACTVS_HBOND_ACCEPTOR>
8

> <PUBCHEM_CACTVS_HBOND_DONOR>
2

> <PUBCHEM_CACTVS_ROTATABLE_BOND>
2

> <PUBCHEM_CACTVS_SUBSKEYS>
AAADccBzuAAAAAAAAAAAAAAAAAAAAAAAAAAgAAAABAAAAAAAAAAAHgAMCAAADAzBgAQAAAIQAgCLAqRWQgCAAAAgIgAICACIAEgIAAAAAQAAAAAAAAAIgYIAAAAAAAAAAAAAAAAAAAAAAAAAAAAAAAAAAA==

> <PUBCHEM_IUPAC_OPENEYE_NAME>
2-[hydroxy-(1-hydroxy-4-pyridylidene)methyl]azo-5-nitroso-cyclohepta-2,4,6-trien-1-one

> <PUBCHEM_IUPAC_CAS_NAME>
2-[hydroxy-(1-hydroxy-4-pyridinylidene)methyl]azo-5-nitroso-1-cyclohepta-2,4,6-trienone

> <PUBCHEM_IUPAC_NAME>
2-[[hydroxy-(1-hydroxypyridin-4-ylidene)methyl]diazenyl]-5-nitrosocyclohepta-2,4,6-trien-1-one

> <PUBCHEM_IUPAC_SYSTEMATIC_NAME>
5-nitroso-2-[[oxidanyl-(1-oxidanylpyridin-4-ylidene)methyl]diazenyl]cyclohepta-2,4,6-trien-1-one

> <PUBCHEM_IUPAC_TRADITIONAL_NAME>
2-[hydroxy-(1-hydroxy-4-pyridylidene)methyl]azo-5-nitroso-cyclohepta-2,4,6-trien-1-one

> <PUBCHEM_IUPAC_INCHI>
InChI=1S/C13H10N4O4/c18-12-4-2-10(16-20)1-3-11(12)14-15-13(19)9-5-7-17(21)8-6-9/h1-8,19,21H

> <PUBCHEM_IUPAC_INCHIKEY>
JZWVKUXFWVJAHS-UHFFFAOYSA-N

> <PUBCHEM_XLOGP3_AA>
1.2

> <PUBCHEM_EXACT_MASS>
286.070205

> <PUBCHEM_MOLECULAR_FORMULA>
C13H10N4O4

> <PUBCHEM_MOLECULAR_WEIGHT>
286.2429

> <PUBCHEM_OPENEYE_CAN_SMILES>
C1=CC(=O)C(=CC=C1N=O)N=NC(=C2C=CN(C=C2)O)O

> <PUBCHEM_OPENEYE_ISO_SMILES>
C1=CC(=O)C(=CC=C1N=O)N=NC(=C2C=CN(C=C2)O)O

> <PUBCHEM_CACTVS_TPSA>
115

> <PUBCHEM_MONOISOTOPIC_WEIGHT>
286.070205

> <PUBCHEM_TOTAL_CHARGE>
0

> <PUBCHEM_HEAVY_ATOM_COUNT>
21

> <PUBCHEM_ATOM_DEF_STEREO_COUNT>
0

> <PUBCHEM_ATOM_UDEF_STEREO_COUNT>
0

> <PUBCHEM_BOND_DEF_STEREO_COUNT>
0

> <PUBCHEM_BOND_UDEF_STEREO_COUNT>
0

> <PUBCHEM_ISOTOPIC_ATOM_COUNT>
0

> <PUBCHEM_COMPONENT_COUNT>
1

> <PUBCHEM_CACTVS_TAUTO_COUNT>
2

> <PUBCHEM_COORDINATE_TYPE>
1
5
255

> <PUBCHEM_BONDANNOTATIONS>
14  16  8
14  17  8
16  18  8
17  20  8
18  19  8
19  21  8
20  21  8

$$$$

