10523
  -OEChem-06261204382D

 48 49  0     1  0  0  0  0  0999 V2000
    7.4190    3.1371    0.0000 O   0  5  0  0  0  0  0  0  0  0  0  0
    5.1808   -0.3309    0.0000 O   0  0  0  0  0  0  0  0  0  0  0  0
    3.6857   -0.5117    0.0000 O   0  0  0  0  0  0  0  0  0  0  0  0
    5.5409   -2.0251    0.0000 O   0  0  0  0  0  0  0  0  0  0  0  0
    2.6064   -2.6488    0.0000 O   0  0  0  0  0  0  0  0  0  0  0  0
    7.4190    2.1371    0.0000 N   0  3  3  0  0  0  0  0  0  0  0  0
    7.4190    1.1371    0.0000 C   0  0  2  0  0  0  0  0  0  0  0  0
    6.4680    0.8281    0.0000 C   0  0  2  0  0  0  0  0  0  0  0  0
    6.4680    2.4461    0.0000 C   0  0  0  0  0  0  0  0  0  0  0  0
    8.3652    0.8324    0.0000 C   0  0  0  0  0  0  0  0  0  0  0  0
    8.3652    2.4418    0.0000 C   0  0  0  0  0  0  0  0  0  0  0  0
    5.8802    1.6371    0.0000 C   0  0  0  0  0  0  0  0  0  0  0  0
    8.9488    1.6371    0.0000 C   0  0  0  0  0  0  0  0  0  0  0  0
    6.1589   -0.1230    0.0000 C   0  0  0  0  0  0  0  0  0  0  0  0
    3.8936   -1.4898    0.0000 C   0  0  2  0  0  0  0  0  0  0  0  0
    4.8718   -1.2819    0.0000 C   0  0  0  0  0  0  0  0  0  0  0  0
    4.1015   -2.4680    0.0000 C   0  0  0  0  0  0  0  0  0  0  0  0
    2.9155   -1.6978    0.0000 C   0  0  3  0  0  0  0  0  0  0  0  0
    3.3584   -3.1371    0.0000 C   0  0  0  0  0  0  0  0  0  0  0  0
    5.0526   -2.7770    0.0000 C   0  0  0  0  0  0  0  0  0  0  0  0
    2.2463   -0.9546    0.0000 C   0  0  0  0  0  0  0  0  0  0  0  0
    7.4201    0.2871    0.0000 H   0  0  0  0  0  0  0  0  0  0  0  0
    5.8556    0.7311    0.0000 H   0  0  0  0  0  0  0  0  0  0  0  0
    6.7201    3.0125    0.0000 H   0  0  0  0  0  0  0  0  0  0  0  0
    5.9310    2.7561    0.0000 H   0  0  0  0  0  0  0  0  0  0  0  0
    8.1142    0.2655    0.0000 H   0  0  0  0  0  0  0  0  0  0  0  0
    8.9026    0.5232    0.0000 H   0  0  0  0  0  0  0  0  0  0  0  0
    8.9026    2.7511    0.0000 H   0  0  0  0  0  0  0  0  0  0  0  0
    8.1142    3.0088    0.0000 H   0  0  0  0  0  0  0  0  0  0  0  0
    5.4194    2.0520    0.0000 H   0  0  0  0  0  0  0  0  0  0  0  0
    5.4194    1.2222    0.0000 H   0  0  0  0  0  0  0  0  0  0  0  0
    9.4097    1.2224    0.0000 H   0  0  0  0  0  0  0  0  0  0  0  0
    9.4097    2.0518    0.0000 H   0  0  0  0  0  0  0  0  0  0  0  0
    6.1806   -0.7426    0.0000 H   0  0  0  0  0  0  0  0  0  0  0  0
    6.7729   -0.2092    0.0000 H   0  0  0  0  0  0  0  0  0  0  0  0
    3.5119   -2.2764    0.0000 H   0  0  0  0  0  0  0  0  0  0  0  0
    2.0840   -1.8745    0.0000 H   0  0  0  0  0  0  0  0  0  0  0  0
    2.9435   -2.6764    0.0000 H   0  0  0  0  0  0  0  0  0  0  0  0
    2.8976   -3.5520    0.0000 H   0  0  0  0  0  0  0  0  0  0  0  0
    3.7732   -3.5979    0.0000 H   0  0  0  0  0  0  0  0  0  0  0  0
    4.8610   -3.3667    0.0000 H   0  0  0  0  0  0  0  0  0  0  0  0
    5.6422   -2.9686    0.0000 H   0  0  0  0  0  0  0  0  0  0  0  0
    5.2442   -2.1874    0.0000 H   0  0  0  0  0  0  0  0  0  0  0  0
    3.0960   -0.3201    0.0000 H   0  0  0  0  0  0  0  0  0  0  0  0
    2.7071   -0.5397    0.0000 H   0  0  0  0  0  0  0  0  0  0  0  0
    1.8315   -0.4939    0.0000 H   0  0  0  0  0  0  0  0  0  0  0  0
    1.7856   -1.3695    0.0000 H   0  0  0  0  0  0  0  0  0  0  0  0
    2.0000   -2.7777    0.0000 H   0  0  0  0  0  0  0  0  0  0  0  0
  1  6  1  0  0  0  0
  2 14  1  0  0  0  0
  2 16  1  0  0  0  0
 15  3  1  6  0  0  0
  3 44  1  0  0  0  0
  4 16  2  0  0  0  0
  5 18  1  0  0  0  0
  5 48  1  0  0  0  0
  6  7  1  0  0  0  0
  6  9  1  0  0  0  0
  6 11  1  0  0  0  0
  7  8  1  0  0  0  0
  7 10  1  0  0  0  0
  7 22  1  6  0  0  0
  8 12  1  0  0  0  0
  8 14  1  1  0  0  0
  8 23  1  0  0  0  0
  9 12  1  0  0  0  0
  9 24  1  0  0  0  0
  9 25  1  0  0  0  0
 10 13  1  0  0  0  0
 10 26  1  0  0  0  0
 10 27  1  0  0  0  0
 11 13  1  0  0  0  0
 11 28  1  0  0  0  0
 11 29  1  0  0  0  0
 12 30  1  0  0  0  0
 12 31  1  0  0  0  0
 13 32  1  0  0  0  0
 13 33  1  0  0  0  0
 14 34  1  0  0  0  0
 14 35  1  0  0  0  0
 15 16  1  0  0  0  0
 15 17  1  0  0  0  0
 15 18  1  0  0  0  0
 17 19  1  0  0  0  0
 17 20  1  0  0  0  0
 17 36  1  0  0  0  0
 18 21  1  0  0  0  0
 18 37  1  0  0  0  0
 19 38  1  0  0  0  0
 19 39  1  0  0  0  0
 19 40  1  0  0  0  0
 20 41  1  0  0  0  0
 20 42  1  0  0  0  0
 20 43  1  0  0  0  0
 21 45  1  0  0  0  0
 21 46  1  0  0  0  0
 21 47  1  0  0  0  0
M  CHG  2   1  -1   6   1
M  END
> <PUBCHEM_COMPOUND_CID>
10523

> <PUBCHEM_COMPOUND_CANONICALIZED>
1

> <PUBCHEM_CACTVS_COMPLEXITY>
402

> <PUBCHEM_CACTVS_HBOND_ACCEPTOR>
5

> <PUBCHEM_CACTVS_HBOND_DONOR>
2

> <PUBCHEM_CACTVS_ROTATABLE_BOND>
6

> <PUBCHEM_CACTVS_SUBSKEYS>
AAADceByOAAAAAAAAAAAAAAAAAAAAWLAAAAAAAAAAAAWAAAAAAAAHgAECAAADXzhgAYCCAMQBgAIAACQCAIAAAAAAAAgAAFIAAABEBYAgAAGQAAHIACDAAGwwAAOgAAAAAAAAAAAAAAAAAAAAAAAAAAAAA==

> <PUBCHEM_IUPAC_OPENEYE_NAME>
[(1S,8S)-4-oxido-2,3,5,6,7,8-hexahydro-1H-pyrrolizin-4-ium-1-yl]methyl (2R)-2-hydroxy-2-(1-hydroxyethyl)-3-methyl-butanoate

> <PUBCHEM_IUPAC_CAS_NAME>
(2R)-2-hydroxy-2-(1-hydroxyethyl)-3-methylbutanoic acid [(1S,8S)-4-oxido-2,3,5,6,7,8-hexahydro-1H-pyrrolizin-4-ium-1-yl]methyl ester

> <PUBCHEM_IUPAC_NAME>
[(1S,8S)-4-oxido-2,3,5,6,7,8-hexahydro-1H-pyrrolizin-4-ium-1-yl]methyl (2R)-2-hydroxy-2-(1-hydroxyethyl)-3-methylbutanoate

> <PUBCHEM_IUPAC_SYSTEMATIC_NAME>
[(1S,8S)-4-oxidanidyl-2,3,5,6,7,8-hexahydro-1H-pyrrolizin-4-ium-1-yl]methyl (2R)-2-(1-hydroxyethyl)-3-methyl-2-oxidanyl-butanoate

> <PUBCHEM_IUPAC_TRADITIONAL_NAME>
(2R)-2-hydroxy-2-(1-hydroxyethyl)-3-methyl-butyric acid [(1S,8S)-4-oxidopyrrolizidin-4-ium-1-yl]methyl ester

> <PUBCHEM_IUPAC_INCHI>
InChI=1S/C15H27NO5/c1-10(2)15(19,11(3)17)14(18)21-9-12-6-8-16(20)7-4-5-13(12)16/h10-13,17,19H,4-9H2,1-3H3/t11?,12-,13+,15-,16?/m1/s1

> <PUBCHEM_IUPAC_INCHIKEY>
DLNWZIVYKQXLTN-CGYUPCHJSA-N

> <PUBCHEM_XLOGP3_AA>
0.8

> <PUBCHEM_EXACT_MASS>
301.188923

> <PUBCHEM_MOLECULAR_FORMULA>
C15H27NO5

> <PUBCHEM_MOLECULAR_WEIGHT>
301.37858

> <PUBCHEM_OPENEYE_CAN_SMILES>
CC(C)C(C(C)O)(C(=O)OCC1CC[N+]2(C1CCC2)[O-])O

> <PUBCHEM_OPENEYE_ISO_SMILES>
CC(C)[C@@](C(C)O)(C(=O)OC[C@H]1CC[N+]2([C@H]1CCC2)[O-])O

> <PUBCHEM_CACTVS_TPSA>
84.8

> <PUBCHEM_MONOISOTOPIC_WEIGHT>
301.188923

> <PUBCHEM_TOTAL_CHARGE>
0

> <PUBCHEM_HEAVY_ATOM_COUNT>
21

> <PUBCHEM_ATOM_DEF_STEREO_COUNT>
3

> <PUBCHEM_ATOM_UDEF_STEREO_COUNT>
2

> <PUBCHEM_BOND_DEF_STEREO_COUNT>
0

> <PUBCHEM_BOND_UDEF_STEREO_COUNT>
0

> <PUBCHEM_ISOTOPIC_ATOM_COUNT>
0

> <PUBCHEM_COMPONENT_COUNT>
1

> <PUBCHEM_CACTVS_TAUTO_COUNT>
1

> <PUBCHEM_COORDINATE_TYPE>
1
5
255

> <PUBCHEM_BONDANNOTATIONS>
6  1  3
18  37  3
15  3  6
7  22  6
8  14  5

$$$$

