17396009
  -OEChem-06241222532D

 34 35  0     1  0  0  0  0  0999 V2000
    3.7320    0.1739    0.0000 S   0  0  0  0  0  0  0  0  0  0  0  0
    2.9230   -1.4139    0.0000 S   0  0  0  0  0  0  0  0  0  0  0  0
    3.7320    3.1739    0.0000 O   0  0  0  0  0  0  0  0  0  0  0  0
    2.7320    0.1739    0.0000 O   0  0  0  0  0  0  0  0  0  0  0  0
    4.7320    0.1739    0.0000 O   0  0  0  0  0  0  0  0  0  0  0  0
    3.7320    1.1739    0.0000 N   0  0  0  0  0  0  0  0  0  0  0  0
    2.8660    1.6739    0.0000 C   0  0  0  0  0  0  0  0  0  0  0  0
    4.5981    1.6739    0.0000 C   0  0  0  0  0  0  0  0  0  0  0  0
    4.5981    2.6739    0.0000 C   0  0  3  0  0  0  0  0  0  0  0  0
    2.8660    2.6739    0.0000 C   0  0  3  0  0  0  0  0  0  0  0  0
    5.4641    3.1739    0.0000 C   0  0  0  0  0  0  0  0  0  0  0  0
    2.0000    3.1739    0.0000 C   0  0  0  0  0  0  0  0  0  0  0  0
    3.7320   -0.8261    0.0000 C   0  0  0  0  0  0  0  0  0  0  0  0
    4.5411   -1.4139    0.0000 C   0  0  0  0  0  0  0  0  0  0  0  0
    3.2320   -2.3649    0.0000 C   0  0  0  0  0  0  0  0  0  0  0  0
    4.2320   -2.3649    0.0000 C   0  0  0  0  0  0  0  0  0  0  0  0
    2.6443   -3.1739    0.0000 C   0  0  0  0  0  0  0  0  0  0  0  0
    4.8101    1.0913    0.0000 H   0  0  0  0  0  0  0  0  0  0  0  0
    5.2087    1.7816    0.0000 H   0  0  0  0  0  0  0  0  0  0  0  0
    2.2554    1.7816    0.0000 H   0  0  0  0  0  0  0  0  0  0  0  0
    2.6540    1.0913    0.0000 H   0  0  0  0  0  0  0  0  0  0  0  0
    4.5981    3.2939    0.0000 H   0  0  0  0  0  0  0  0  0  0  0  0
    2.8660    3.2939    0.0000 H   0  0  0  0  0  0  0  0  0  0  0  0
    2.3100    3.7109    0.0000 H   0  0  0  0  0  0  0  0  0  0  0  0
    1.4631    3.4839    0.0000 H   0  0  0  0  0  0  0  0  0  0  0  0
    1.6900    2.6370    0.0000 H   0  0  0  0  0  0  0  0  0  0  0  0
    5.7741    2.6370    0.0000 H   0  0  0  0  0  0  0  0  0  0  0  0
    6.0010    3.4839    0.0000 H   0  0  0  0  0  0  0  0  0  0  0  0
    5.1541    3.7109    0.0000 H   0  0  0  0  0  0  0  0  0  0  0  0
    5.1307   -1.2223    0.0000 H   0  0  0  0  0  0  0  0  0  0  0  0
    4.5965   -2.8665    0.0000 H   0  0  0  0  0  0  0  0  0  0  0  0
    2.1427   -2.8095    0.0000 H   0  0  0  0  0  0  0  0  0  0  0  0
    2.2798   -3.6755    0.0000 H   0  0  0  0  0  0  0  0  0  0  0  0
    3.1459   -3.5384    0.0000 H   0  0  0  0  0  0  0  0  0  0  0  0
  1  4  2  0  0  0  0
  1  5  2  0  0  0  0
  1  6  1  0  0  0  0
  1 13  1  0  0  0  0
  2 13  1  0  0  0  0
  2 15  1  0  0  0  0
  3  9  1  0  0  0  0
  3 10  1  0  0  0  0
  6  7  1  0  0  0  0
  6  8  1  0  0  0  0
  7 10  1  0  0  0  0
  7 20  1  0  0  0  0
  7 21  1  0  0  0  0
  8  9  1  0  0  0  0
  8 18  1  0  0  0  0
  8 19  1  0  0  0  0
  9 11  1  0  0  0  0
  9 22  1  0  0  0  0
 10 12  1  0  0  0  0
 10 23  1  0  0  0  0
 11 27  1  0  0  0  0
 11 28  1  0  0  0  0
 11 29  1  0  0  0  0
 12 24  1  0  0  0  0
 12 25  1  0  0  0  0
 12 26  1  0  0  0  0
 13 14  2  0  0  0  0
 14 16  1  0  0  0  0
 14 30  1  0  0  0  0
 15 16  2  0  0  0  0
 15 17  1  0  0  0  0
 16 31  1  0  0  0  0
 17 32  1  0  0  0  0
 17 33  1  0  0  0  0
 17 34  1  0  0  0  0
M  END
> <PUBCHEM_COMPOUND_CID>
17396009

> <PUBCHEM_COMPOUND_CANONICALIZED>
1

> <PUBCHEM_CACTVS_COMPLEXITY>
355

> <PUBCHEM_CACTVS_HBOND_ACCEPTOR>
5

> <PUBCHEM_CACTVS_HBOND_DONOR>
0

> <PUBCHEM_CACTVS_ROTATABLE_BOND>
2

> <PUBCHEM_CACTVS_SUBSKEYS>
AAADceByMABgAAAAAAAAAAAAAAAAASAAAAAsAAAAAAAAAAABgAAAHgQAQAAACBTh0AYyAYIABAqEACBCAHBDAZAgCBBIiBgIAIgKICKgERCHAAAggAC4iAYAAAAAAAAAAAAAAAAAAAAAAAAAAAAAAAAAAA==

> <PUBCHEM_IUPAC_OPENEYE_NAME>
2,6-dimethyl-4-[(5-methyl-2-thienyl)sulfonyl]morpholine

> <PUBCHEM_IUPAC_CAS_NAME>
2,6-dimethyl-4-[(5-methyl-2-thiophenyl)sulfonyl]morpholine

> <PUBCHEM_IUPAC_NAME>
2,6-dimethyl-4-(5-methylthiophen-2-yl)sulfonylmorpholine

> <PUBCHEM_IUPAC_SYSTEMATIC_NAME>
2,6-dimethyl-4-(5-methylthiophen-2-yl)sulfonyl-morpholine

> <PUBCHEM_IUPAC_TRADITIONAL_NAME>
2,6-dimethyl-4-[(5-methyl-2-thienyl)sulfonyl]morpholine

> <PUBCHEM_IUPAC_INCHI>
InChI=1S/C11H17NO3S2/c1-8-6-12(7-9(2)15-8)17(13,14)11-5-4-10(3)16-11/h4-5,8-9H,6-7H2,1-3H3

> <PUBCHEM_IUPAC_INCHIKEY>
ZMWFOSXPLRBEIN-UHFFFAOYSA-N

> <PUBCHEM_XLOGP3_AA>
2

> <PUBCHEM_EXACT_MASS>
275.064985

> <PUBCHEM_MOLECULAR_FORMULA>
C11H17NO3S2

> <PUBCHEM_MOLECULAR_WEIGHT>
275.38758

> <PUBCHEM_OPENEYE_CAN_SMILES>
CC1CN(CC(O1)C)S(=O)(=O)C2=CC=C(S2)C

> <PUBCHEM_OPENEYE_ISO_SMILES>
CC1CN(CC(O1)C)S(=O)(=O)C2=CC=C(S2)C

> <PUBCHEM_CACTVS_TPSA>
83.2

> <PUBCHEM_MONOISOTOPIC_WEIGHT>
275.064985

> <PUBCHEM_TOTAL_CHARGE>
0

> <PUBCHEM_HEAVY_ATOM_COUNT>
17

> <PUBCHEM_ATOM_DEF_STEREO_COUNT>
0

> <PUBCHEM_ATOM_UDEF_STEREO_COUNT>
2

> <PUBCHEM_BOND_DEF_STEREO_COUNT>
0

> <PUBCHEM_BOND_UDEF_STEREO_COUNT>
0

> <PUBCHEM_ISOTOPIC_ATOM_COUNT>
0

> <PUBCHEM_COMPONENT_COUNT>
1

> <PUBCHEM_CACTVS_TAUTO_COUNT>
1

> <PUBCHEM_COORDINATE_TYPE>
1
5
255

> <PUBCHEM_BONDANNOTATIONS>
10  12  3
13  14  8
14  16  8
15  16  8
2  13  8
2  15  8
9  11  3

$$$$

