17395993
  -OEChem-06241222533D

 43 45  0     0  0  0  0  0  0999 V2000
   -5.3099   -0.6713   -1.4333 O   0  0  0  0  0  0  0  0  0  0  0  0
    4.9617   -1.4889   -0.8946 O   0  0  0  0  0  0  0  0  0  0  0  0
    5.7425    1.1172   -1.4646 O   0  0  0  0  0  0  0  0  0  0  0  0
    0.2669   -2.1712    1.1276 O   0  0  0  0  0  0  0  0  0  0  0  0
   -6.6238    2.2451    0.2481 O   0  0  0  0  0  0  0  0  0  0  0  0
    0.2709    0.1054    1.5684 N   0  0  0  0  0  0  0  0  0  0  0  0
   -4.5884    1.2171    0.5447 N   0  0  0  0  0  0  0  0  0  0  0  0
   -3.7040    0.2067    0.1532 C   0  0  0  0  0  0  0  0  0  0  0  0
   -1.5976   -0.9418    0.4131 C   0  0  0  0  0  0  0  0  0  0  0  0
    1.5623    0.1483    2.2160 C   0  0  0  0  0  0  0  0  0  0  0  0
   -4.0841   -0.7049   -0.8303 C   0  0  0  0  0  0  0  0  0  0  0  0
    2.6731    0.4021    1.2382 C   0  0  0  0  0  0  0  0  0  0  0  0
   -2.4623    0.0894    0.7808 C   0  0  0  0  0  0  0  0  0  0  0  0
   -0.3010   -1.0666    1.0594 C   0  0  0  0  0  0  0  0  0  0  0  0
   -1.9782   -1.8576   -0.5684 C   0  0  0  0  0  0  0  0  0  0  0  0
   -3.2245   -1.7448   -1.1855 C   0  0  0  0  0  0  0  0  0  0  0  0
   -5.9565    0.5849   -1.3618 C   0  0  0  0  0  0  0  0  0  0  0  0
    3.3129   -0.6698    0.6157 C   0  0  0  0  0  0  0  0  0  0  0  0
    3.0650    1.7098    0.9521 C   0  0  0  0  0  0  0  0  0  0  0  0
   -5.7861    1.4165   -0.1020 C   0  0  0  0  0  0  0  0  0  0  0  0
    4.3446   -0.4340   -0.2930 C   0  0  0  0  0  0  0  0  0  0  0  0
    4.7366    0.8737   -0.5791 C   0  0  0  0  0  0  0  0  0  0  0  0
    4.0968    1.9456    0.0436 C   0  0  0  0  0  0  0  0  0  0  0  0
    4.5010   -2.7934   -0.5472 C   0  0  0  0  0  0  0  0  0  0  0  0
    6.0819    2.4822   -1.7010 C   0  0  0  0  0  0  0  0  0  0  0  0
    1.5255    0.9428    2.9700 H   0  0  0  0  0  0  0  0  0  0  0  0
    1.7323   -0.7916    2.7541 H   0  0  0  0  0  0  0  0  0  0  0  0
   -2.2122    0.7927    1.5704 H   0  0  0  0  0  0  0  0  0  0  0  0
   -0.1868    0.9989    1.4233 H   0  0  0  0  0  0  0  0  0  0  0  0
   -1.3183   -2.6685   -0.8659 H   0  0  0  0  0  0  0  0  0  0  0  0
   -3.5173   -2.4689   -1.9408 H   0  0  0  0  0  0  0  0  0  0  0  0
   -4.3440    1.8042    1.3367 H   0  0  0  0  0  0  0  0  0  0  0  0
   -5.6268    1.1946   -2.2120 H   0  0  0  0  0  0  0  0  0  0  0  0
   -7.0288    0.3999   -1.4895 H   0  0  0  0  0  0  0  0  0  0  0  0
    2.9704   -1.6642    0.8797 H   0  0  0  0  0  0  0  0  0  0  0  0
    2.5723    2.5527    1.4298 H   0  0  0  0  0  0  0  0  0  0  0  0
    4.3475    2.9863   -0.1300 H   0  0  0  0  0  0  0  0  0  0  0  0
    4.6710   -3.0128    0.5124 H   0  0  0  0  0  0  0  0  0  0  0  0
    3.4575   -2.9457   -0.8434 H   0  0  0  0  0  0  0  0  0  0  0  0
    5.1005   -3.5093   -1.1194 H   0  0  0  0  0  0  0  0  0  0  0  0
    6.8994    2.4894   -2.4296 H   0  0  0  0  0  0  0  0  0  0  0  0
    6.4602    2.9669   -0.7944 H   0  0  0  0  0  0  0  0  0  0  0  0
    5.2494    3.0328   -2.1521 H   0  0  0  0  0  0  0  0  0  0  0  0
  1 11  1  0  0  0  0
  1 17  1  0  0  0  0
  2 21  1  0  0  0  0
  2 24  1  0  0  0  0
  3 22  1  0  0  0  0
  3 25  1  0  0  0  0
  4 14  2  0  0  0  0
  5 20  2  0  0  0  0
  6 10  1  0  0  0  0
  6 14  1  0  0  0  0
  6 29  1  0  0  0  0
  7  8  1  0  0  0  0
  7 20  1  0  0  0  0
  7 32  1  0  0  0  0
  8 11  2  0  0  0  0
  8 13  1  0  0  0  0
  9 13  2  0  0  0  0
  9 14  1  0  0  0  0
  9 15  1  0  0  0  0
 10 12  1  0  0  0  0
 10 26  1  0  0  0  0
 10 27  1  0  0  0  0
 11 16  1  0  0  0  0
 12 18  2  0  0  0  0
 12 19  1  0  0  0  0
 13 28  1  0  0  0  0
 15 16  2  0  0  0  0
 15 30  1  0  0  0  0
 16 31  1  0  0  0  0
 17 20  1  0  0  0  0
 17 33  1  0  0  0  0
 17 34  1  0  0  0  0
 18 21  1  0  0  0  0
 18 35  1  0  0  0  0
 19 23  2  0  0  0  0
 19 36  1  0  0  0  0
 21 22  2  0  0  0  0
 22 23  1  0  0  0  0
 23 37  1  0  0  0  0
 24 38  1  0  0  0  0
 24 39  1  0  0  0  0
 24 40  1  0  0  0  0
 25 41  1  0  0  0  0
 25 42  1  0  0  0  0
 25 43  1  0  0  0  0
M  END
> <PUBCHEM_COMPOUND_CID>
17395993

> <PUBCHEM_CONFORMER_RMSD>
0.8

> <PUBCHEM_CONFORMER_DIVERSEORDER>
1
61
22
56
21
20
52
41
43
6
26
37
55
14
24
51
39
62
44
40
65
53
15
29
42
13
2
47
11
64
35
25
23
66
30
48
31
9
19
36
33
60
32
27
28
18
54
46
16
12
50
57
45
17
34
58
4
59
3
49
10
5
8
38
63
7

> <PUBCHEM_MMFF94_PARTIAL_CHARGES>
33
1 -0.36
10 0.44
11 0.08
12 -0.14
13 -0.15
14 0.54
15 -0.15
16 -0.15
17 0.34
18 -0.15
19 -0.15
2 -0.36
20 0.57
21 0.08
22 0.08
23 -0.15
24 0.28
25 0.28
28 0.15
29 0.37
3 -0.36
30 0.15
31 0.15
32 0.37
35 0.15
36 0.15
37 0.15
4 -0.57
5 -0.57
6 -0.73
7 -0.55
8 0.12
9 0.09

> <PUBCHEM_EFFECTIVE_ROTOR_COUNT>
6.6

> <PUBCHEM_PHARMACOPHORE_FEATURES>
10
1 1 acceptor
1 2 acceptor
1 3 acceptor
1 4 acceptor
1 5 acceptor
1 6 donor
1 7 donor
6 1 7 8 11 17 20 rings
6 12 18 19 21 22 23 rings
6 8 9 11 13 15 16 rings

> <PUBCHEM_HEAVY_ATOM_COUNT>
25

> <PUBCHEM_ATOM_DEF_STEREO_COUNT>
0

> <PUBCHEM_ATOM_UDEF_STEREO_COUNT>
0

> <PUBCHEM_BOND_DEF_STEREO_COUNT>
0

> <PUBCHEM_BOND_UDEF_STEREO_COUNT>
0

> <PUBCHEM_ISOTOPIC_ATOM_COUNT>
0

> <PUBCHEM_COMPONENT_COUNT>
1

> <PUBCHEM_CACTVS_TAUTO_COUNT>
4

> <PUBCHEM_CONFORMER_ID>
0109711900000001

> <PUBCHEM_MMFF94_ENERGY>
89.0505

> <PUBCHEM_FEATURE_SELFOVERLAP>
50.781

> <PUBCHEM_SHAPE_FINGERPRINT>
10 15 13398629424897754340
10378564 45 18113907086450203928
10613725 11 18113621217706170579
10670039 82 18336552698234178617
11069576 57 17968366970804060166
11796584 16 16515689922477368582
12403259 118 12391526256110306422
128238 76 12822711835522643529
12954195 1 16733258041309084017
13627167 48 18272370905643463621
13668630 136 15357975633778980437
13782708 43 14635733886951499717
13955234 65 16414931862577290082
14341114 328 12103842363033374138
14528608 73 18412554201772914179
14840074 17 18060142050811853701
14848160 23 6771865156200154513
14848178 5 5256399530835578029
14931854 50 17895180100935314742
15003188 33 18335133233022403024
15183329 4 17458341961818339313
15188451 53 8142089745232591625
15210252 30 18201721709086911120
15575132 122 18202009875865113253
17349148 13 5761657039684795729
17870717 6 17095239194806655405
18222031 100 14851602181178903608
19315092 285 6266349236733923190
19377110 9 12391506469068847353
20645477 70 15792016615103734210
22061861 79 15936412217341848969
22393880 68 17604712153906464062
23559900 14 17168154390127816185
2838139 119 17417822746168140884
3004659 81 18187648054893308354
32948 21 17967820452651090643
3298306 158 17095246921221232759
3472631 163 17346037749836745422
392239 28 10303818691483043565
394071 54 17346877819327460444
4098825 35 18342167843961152410
44062 13 16805614607719864623
5718773 13 5328476852059723804
633830 44 18271815609242167987
6443934 186 11095871683771275814
960060 61 18186519895616877090

> <PUBCHEM_SHAPE_MULTIPOLES>
475.18
16.89
2.52
1.64
6.34
0.28
0.16
-8.74
-8.68
-1.89
-0.62
-0.9
-0.19
-1.28

> <PUBCHEM_SHAPE_SELFOVERLAP>
1027.533

> <PUBCHEM_SHAPE_VOLUME>
259.3

> <PUBCHEM_COORDINATE_TYPE>
2
5
10

$$$$

