8961
  -OEChem-06261203162D

 20 21  0     0  0  0  0  0  0999 V2000
    2.8660   -2.1550    0.0000 Cl  0  0  0  0  0  0  0  0  0  0  0  0
    2.8660    1.8450    0.0000 O   0  0  0  0  0  0  0  0  0  0  0  0
    5.2619   -0.1550    0.0000 C   0  0  0  0  0  0  0  0  0  0  0  0
    4.6783    0.6497    0.0000 C   0  0  0  0  0  0  0  0  0  0  0  0
    4.6783   -0.9597    0.0000 C   0  0  0  0  0  0  0  0  0  0  0  0
    3.7320    0.3450    0.0000 C   0  0  0  0  0  0  0  0  0  0  0  0
    3.7320   -0.6550    0.0000 C   0  0  0  0  0  0  0  0  0  0  0  0
    2.8660    0.8450    0.0000 C   0  0  0  0  0  0  0  0  0  0  0  0
    2.8660   -1.1550    0.0000 C   0  0  0  0  0  0  0  0  0  0  0  0
    2.0000    0.3450    0.0000 C   0  0  0  0  0  0  0  0  0  0  0  0
    2.0000   -0.6550    0.0000 C   0  0  0  0  0  0  0  0  0  0  0  0
    5.7227   -0.5697    0.0000 H   0  0  0  0  0  0  0  0  0  0  0  0
    5.7227    0.2597    0.0000 H   0  0  0  0  0  0  0  0  0  0  0  0
    5.2156    0.9590    0.0000 H   0  0  0  0  0  0  0  0  0  0  0  0
    4.4272    1.2166    0.0000 H   0  0  0  0  0  0  0  0  0  0  0  0
    4.4272   -1.5266    0.0000 H   0  0  0  0  0  0  0  0  0  0  0  0
    5.2156   -1.2690    0.0000 H   0  0  0  0  0  0  0  0  0  0  0  0
    1.4631    0.6550    0.0000 H   0  0  0  0  0  0  0  0  0  0  0  0
    1.4631   -0.9650    0.0000 H   0  0  0  0  0  0  0  0  0  0  0  0
    2.3291    2.1550    0.0000 H   0  0  0  0  0  0  0  0  0  0  0  0
  1  9  1  0  0  0  0
  2  8  1  0  0  0  0
  2 20  1  0  0  0  0
  3  4  1  0  0  0  0
  3  5  1  0  0  0  0
  3 12  1  0  0  0  0
  3 13  1  0  0  0  0
  4  6  1  0  0  0  0
  4 14  1  0  0  0  0
  4 15  1  0  0  0  0
  5  7  1  0  0  0  0
  5 16  1  0  0  0  0
  5 17  1  0  0  0  0
  6  7  1  0  0  0  0
  6  8  2  0  0  0  0
  7  9  2  0  0  0  0
  8 10  1  0  0  0  0
  9 11  1  0  0  0  0
 10 11  2  0  0  0  0
 10 18  1  0  0  0  0
 11 19  1  0  0  0  0
M  END
> <PUBCHEM_COMPOUND_CID>
8961

> <PUBCHEM_COMPOUND_CANONICALIZED>
1

> <PUBCHEM_CACTVS_COMPLEXITY>
149

> <PUBCHEM_CACTVS_HBOND_ACCEPTOR>
1

> <PUBCHEM_CACTVS_HBOND_DONOR>
1

> <PUBCHEM_CACTVS_ROTATABLE_BOND>
0

> <PUBCHEM_CACTVS_SUBSKEYS>
AAADccBwIAAEAAAAAAAAAAAAAAAAAYAAAAAwAAAAAAAAAGABAAAAGgIACAAADAaAmCAwBoAAAgCAAiBCAAACAAAgJQAIiAAGCogIJiKDEhKAcAAkwBEImAeAwLAOgCABIAAZAAAAQAJAADIAAAAACAAAAA==

> <PUBCHEM_IUPAC_OPENEYE_NAME>
7-chloroindan-4-ol

> <PUBCHEM_IUPAC_CAS_NAME>
7-chloro-2,3-dihydro-1H-inden-4-ol

> <PUBCHEM_IUPAC_NAME>
7-chloro-2,3-dihydro-1H-inden-4-ol

> <PUBCHEM_IUPAC_SYSTEMATIC_NAME>
7-chloranyl-2,3-dihydro-1H-inden-4-ol

> <PUBCHEM_IUPAC_TRADITIONAL_NAME>
7-chloroindan-4-ol

> <PUBCHEM_IUPAC_INCHI>
InChI=1S/C9H9ClO/c10-8-4-5-9(11)7-3-1-2-6(7)8/h4-5,11H,1-3H2

> <PUBCHEM_IUPAC_INCHIKEY>
ATAJVFBUUIBIEO-UHFFFAOYSA-N

> <PUBCHEM_XLOGP3_AA>
3

> <PUBCHEM_EXACT_MASS>
168.034193

> <PUBCHEM_MOLECULAR_FORMULA>
C9H9ClO

> <PUBCHEM_MOLECULAR_WEIGHT>
168.62016

> <PUBCHEM_OPENEYE_CAN_SMILES>
C1CC2=C(C=CC(=C2C1)Cl)O

> <PUBCHEM_OPENEYE_ISO_SMILES>
C1CC2=C(C=CC(=C2C1)Cl)O

> <PUBCHEM_CACTVS_TPSA>
20.2

> <PUBCHEM_MONOISOTOPIC_WEIGHT>
168.034193

> <PUBCHEM_TOTAL_CHARGE>
0

> <PUBCHEM_HEAVY_ATOM_COUNT>
11

> <PUBCHEM_ATOM_DEF_STEREO_COUNT>
0

> <PUBCHEM_ATOM_UDEF_STEREO_COUNT>
0

> <PUBCHEM_BOND_DEF_STEREO_COUNT>
0

> <PUBCHEM_BOND_UDEF_STEREO_COUNT>
0

> <PUBCHEM_ISOTOPIC_ATOM_COUNT>
0

> <PUBCHEM_COMPONENT_COUNT>
1

> <PUBCHEM_CACTVS_TAUTO_COUNT>
6

> <PUBCHEM_COORDINATE_TYPE>
1
5
255

> <PUBCHEM_BONDANNOTATIONS>
10  11  8
6  7  8
6  8  8
7  9  8
8  10  8
9  11  8

$$$$

