17396431
  -OEChem-06241222562D

 56 59  0     1  0  0  0  0  0999 V2000
    4.3211    0.7793    0.0000 S   0  0  0  0  0  0  0  0  0  0  0  0
    4.6783   -2.5250    0.0000 O   0  0  0  0  0  0  0  0  0  0  0  0
    8.1165   -0.9966    0.0000 O   0  0  0  0  0  0  0  0  0  0  0  0
    6.7619   -0.8542    0.0000 O   0  0  0  0  0  0  0  0  0  0  0  0
    6.7619   -2.5863    0.0000 N   0  0  0  0  0  0  0  0  0  0  0  0
    9.4037   -2.1556    0.0000 N   0  0  0  0  0  0  0  0  0  0  0  0
    7.7564   -2.6908    0.0000 C   0  0  3  0  0  0  0  0  0  0  0  0
    7.9643   -3.6690    0.0000 C   0  0  0  0  0  0  0  0  0  0  0  0
    7.0983   -4.1690    0.0000 C   0  0  0  0  0  0  0  0  0  0  0  0
    6.3551   -3.4998    0.0000 C   0  0  0  0  0  0  0  0  0  0  0  0
    8.4255   -1.9477    0.0000 C   0  0  0  0  0  0  0  0  0  0  0  0
    6.2619   -1.7202    0.0000 C   0  0  0  0  0  0  0  0  0  0  0  0
    5.2619   -1.7202    0.0000 C   0  0  0  0  0  0  0  0  0  0  0  0
    4.6783   -0.9155    0.0000 C   0  0  0  0  0  0  0  0  0  0  0  0
    3.7320   -1.2202    0.0000 C   0  0  0  0  0  0  0  0  0  0  0  0
    3.7320   -2.2202    0.0000 C   0  0  0  0  0  0  0  0  0  0  0  0
    4.9889    0.0350    0.0000 C   0  0  0  0  0  0  0  0  0  0  0  0
    9.7127   -3.1066    0.0000 C   0  0  0  0  0  0  0  0  0  0  0  0
   10.0728   -1.4124    0.0000 C   0  0  0  0  0  0  0  0  0  0  0  0
    2.8660   -0.7202    0.0000 C   0  0  0  0  0  0  0  0  0  0  0  0
    2.8660   -2.7202    0.0000 C   0  0  0  0  0  0  0  0  0  0  0  0
    2.0000   -1.2202    0.0000 C   0  0  0  0  0  0  0  0  0  0  0  0
    2.0000   -2.2202    0.0000 C   0  0  0  0  0  0  0  0  0  0  0  0
    4.6318    1.7298    0.0000 C   0  0  0  0  0  0  0  0  0  0  0  0
    3.9639    2.4741    0.0000 C   0  0  0  0  0  0  0  0  0  0  0  0
    4.2746    3.4246    0.0000 C   0  0  0  0  0  0  0  0  0  0  0  0
    2.9854    2.2679    0.0000 C   0  0  0  0  0  0  0  0  0  0  0  0
    3.6067    4.1690    0.0000 C   0  0  0  0  0  0  0  0  0  0  0  0
    2.3176    3.0122    0.0000 C   0  0  0  0  0  0  0  0  0  0  0  0
    2.6282    3.9627    0.0000 C   0  0  0  0  0  0  0  0  0  0  0  0
    7.5342   -2.1120    0.0000 H   0  0  0  0  0  0  0  0  0  0  0  0
    8.2165   -4.2354    0.0000 H   0  0  0  0  0  0  0  0  0  0  0  0
    8.5540   -3.4774    0.0000 H   0  0  0  0  0  0  0  0  0  0  0  0
    6.6375   -4.5838    0.0000 H   0  0  0  0  0  0  0  0  0  0  0  0
    7.4627   -4.6705    0.0000 H   0  0  0  0  0  0  0  0  0  0  0  0
    5.8182   -3.1898    0.0000 H   0  0  0  0  0  0  0  0  0  0  0  0
    5.9907   -4.0014    0.0000 H   0  0  0  0  0  0  0  0  0  0  0  0
    5.5359   -0.2570    0.0000 H   0  0  0  0  0  0  0  0  0  0  0  0
    5.3715    0.5229    0.0000 H   0  0  0  0  0  0  0  0  0  0  0  0
   10.5336   -1.8273    0.0000 H   0  0  0  0  0  0  0  0  0  0  0  0
   10.4877   -0.9517    0.0000 H   0  0  0  0  0  0  0  0  0  0  0  0
    9.1230   -3.2982    0.0000 H   0  0  0  0  0  0  0  0  0  0  0  0
    9.9043   -3.6963    0.0000 H   0  0  0  0  0  0  0  0  0  0  0  0
   10.3024   -2.9150    0.0000 H   0  0  0  0  0  0  0  0  0  0  0  0
    9.6121   -0.9976    0.0000 H   0  0  0  0  0  0  0  0  0  0  0  0
    2.8660   -0.1002    0.0000 H   0  0  0  0  0  0  0  0  0  0  0  0
    2.8660   -3.3402    0.0000 H   0  0  0  0  0  0  0  0  0  0  0  0
    1.4631   -0.9102    0.0000 H   0  0  0  0  0  0  0  0  0  0  0  0
    1.4631   -2.5302    0.0000 H   0  0  0  0  0  0  0  0  0  0  0  0
    5.1787    1.4378    0.0000 H   0  0  0  0  0  0  0  0  0  0  0  0
    5.0143    2.2177    0.0000 H   0  0  0  0  0  0  0  0  0  0  0  0
    4.8812    3.5525    0.0000 H   0  0  0  0  0  0  0  0  0  0  0  0
    2.7928    1.6786    0.0000 H   0  0  0  0  0  0  0  0  0  0  0  0
    3.7993    4.7583    0.0000 H   0  0  0  0  0  0  0  0  0  0  0  0
    1.7109    2.8844    0.0000 H   0  0  0  0  0  0  0  0  0  0  0  0
    2.2142    4.4242    0.0000 H   0  0  0  0  0  0  0  0  0  0  0  0
  1 17  1  0  0  0  0
  1 24  1  0  0  0  0
  2 13  1  0  0  0  0
  2 16  1  0  0  0  0
  3 11  2  0  0  0  0
  4 12  2  0  0  0  0
  5  7  1  0  0  0  0
  5 10  1  0  0  0  0
  5 12  1  0  0  0  0
  6 11  1  0  0  0  0
  6 18  1  0  0  0  0
  6 19  1  0  0  0  0
  7  8  1  0  0  0  0
  7 11  1  0  0  0  0
  7 31  1  0  0  0  0
  8  9  1  0  0  0  0
  8 32  1  0  0  0  0
  8 33  1  0  0  0  0
  9 10  1  0  0  0  0
  9 34  1  0  0  0  0
  9 35  1  0  0  0  0
 10 36  1  0  0  0  0
 10 37  1  0  0  0  0
 12 13  1  0  0  0  0
 13 14  2  0  0  0  0
 14 15  1  0  0  0  0
 14 17  1  0  0  0  0
 15 16  1  0  0  0  0
 15 20  2  0  0  0  0
 16 21  2  0  0  0  0
 17 38  1  0  0  0  0
 17 39  1  0  0  0  0
 18 42  1  0  0  0  0
 18 43  1  0  0  0  0
 18 44  1  0  0  0  0
 19 40  1  0  0  0  0
 19 41  1  0  0  0  0
 19 45  1  0  0  0  0
 20 22  1  0  0  0  0
 20 46  1  0  0  0  0
 21 23  1  0  0  0  0
 21 47  1  0  0  0  0
 22 23  2  0  0  0  0
 22 48  1  0  0  0  0
 23 49  1  0  0  0  0
 24 25  1  0  0  0  0
 24 50  1  0  0  0  0
 24 51  1  0  0  0  0
 25 26  2  0  0  0  0
 25 27  1  0  0  0  0
 26 28  1  0  0  0  0
 26 52  1  0  0  0  0
 27 29  2  0  0  0  0
 27 53  1  0  0  0  0
 28 30  2  0  0  0  0
 28 54  1  0  0  0  0
 29 30  1  0  0  0  0
 29 55  1  0  0  0  0
 30 56  1  0  0  0  0
M  END
> <PUBCHEM_COMPOUND_CID>
17396431

> <PUBCHEM_COMPOUND_CANONICALIZED>
1

> <PUBCHEM_CACTVS_COMPLEXITY>
607

> <PUBCHEM_CACTVS_HBOND_ACCEPTOR>
4

> <PUBCHEM_CACTVS_HBOND_DONOR>
0

> <PUBCHEM_CACTVS_ROTATABLE_BOND>
6

> <PUBCHEM_CACTVS_SUBSKEYS>
AAADceB7MABAAAAAAAAAAAAAAAAAAWJAAAAwYAAAAAAAAEgB9AAAHgQAAAAADCzF2ASyBsMABEiIAqFSEAKCCAAkIBAIiAHODMgOZjKktT+XOSjkxhG4qYeY3+LugAAAAAAIAAAAAAAAABAAAAAAAAAAAA==

> <PUBCHEM_IUPAC_OPENEYE_NAME>
1-[3-(benzylsulfanylmethyl)benzofuran-2-carbonyl]-N,N-dimethyl-pyrrolidine-2-carboxamide

> <PUBCHEM_IUPAC_CAS_NAME>
N,N-dimethyl-1-[oxo-[3-[(phenylmethylthio)methyl]-2-benzofuranyl]methyl]-2-pyrrolidinecarboxamide

> <PUBCHEM_IUPAC_NAME>
1-[3-(benzylsulfanylmethyl)-1-benzofuran-2-carbonyl]-N,N-dimethylpyrrolidine-2-carboxamide

> <PUBCHEM_IUPAC_SYSTEMATIC_NAME>
N,N-dimethyl-1-[[3-[(phenylmethylsulfanyl)methyl]-1-benzofuran-2-yl]carbonyl]pyrrolidine-2-carboxamide

> <PUBCHEM_IUPAC_TRADITIONAL_NAME>
1-[3-[(benzylthio)methyl]benzofuran-2-carbonyl]-N,N-dimethyl-pyrrolidine-2-carboxamide

> <PUBCHEM_IUPAC_INCHI>
InChI=1S/C24H26N2O3S/c1-25(2)23(27)20-12-8-14-26(20)24(28)22-19(18-11-6-7-13-21(18)29-22)16-30-15-17-9-4-3-5-10-17/h3-7,9-11,13,20H,8,12,14-16H2,1-2H3

> <PUBCHEM_IUPAC_INCHIKEY>
JOUYNNMBEHVXGF-UHFFFAOYSA-N

> <PUBCHEM_XLOGP3_AA>
4.1

> <PUBCHEM_EXACT_MASS>
422.166414

> <PUBCHEM_MOLECULAR_FORMULA>
C24H26N2O3S

> <PUBCHEM_MOLECULAR_WEIGHT>
422.53984

> <PUBCHEM_OPENEYE_CAN_SMILES>
CN(C)C(=O)C1CCCN1C(=O)C2=C(C3=CC=CC=C3O2)CSCC4=CC=CC=C4

> <PUBCHEM_OPENEYE_ISO_SMILES>
CN(C)C(=O)C1CCCN1C(=O)C2=C(C3=CC=CC=C3O2)CSCC4=CC=CC=C4

> <PUBCHEM_CACTVS_TPSA>
79.1

> <PUBCHEM_MONOISOTOPIC_WEIGHT>
422.166414

> <PUBCHEM_TOTAL_CHARGE>
0

> <PUBCHEM_HEAVY_ATOM_COUNT>
30

> <PUBCHEM_ATOM_DEF_STEREO_COUNT>
0

> <PUBCHEM_ATOM_UDEF_STEREO_COUNT>
1

> <PUBCHEM_BOND_DEF_STEREO_COUNT>
0

> <PUBCHEM_BOND_UDEF_STEREO_COUNT>
0

> <PUBCHEM_ISOTOPIC_ATOM_COUNT>
0

> <PUBCHEM_COMPONENT_COUNT>
1

> <PUBCHEM_CACTVS_TAUTO_COUNT>
1

> <PUBCHEM_COORDINATE_TYPE>
1
5
255

> <PUBCHEM_BONDANNOTATIONS>
13  14  8
14  15  8
15  16  8
15  20  8
16  21  8
2  13  8
2  16  8
20  22  8
21  23  8
22  23  8
25  26  8
25  27  8
26  28  8
27  29  8
28  30  8
29  30  8
7  11  3

$$$$

