17395265
  -OEChem-06241222493D

 52 55  0     0  0  0  0  0  0999 V2000
    0.6202   -2.7844   -1.3459 O   0  0  0  0  0  0  0  0  0  0  0  0
    5.6037    0.1603    0.5787 O   0  0  0  0  0  0  0  0  0  0  0  0
    2.0428    2.6811   -0.0842 O   0  0  0  0  0  0  0  0  0  0  0  0
   -0.2591   -1.6104    0.4872 N   0  0  0  0  0  0  0  0  0  0  0  0
    2.3124   -0.2970   -0.7264 N   0  0  0  0  0  0  0  0  0  0  0  0
    3.5392    0.2594   -0.4862 N   0  0  0  0  0  0  0  0  0  0  0  0
   -2.5733   -0.8839    0.2302 C   0  0  0  0  0  0  0  0  0  0  0  0
   -5.0013   -0.2061   -0.0350 C   0  0  0  0  0  0  0  0  0  0  0  0
   -3.2072    1.0465   -1.2852 C   0  0  0  0  0  0  0  0  0  0  0  0
   -3.4102    1.2969    1.2141 C   0  0  0  0  0  0  0  0  0  0  0  0
   -4.0347   -1.3871    0.1616 C   0  0  0  0  0  0  0  0  0  0  0  0
   -2.2456   -0.1378   -1.0849 C   0  0  0  0  0  0  0  0  0  0  0  0
   -2.4481    0.1118    1.4076 C   0  0  0  0  0  0  0  0  0  0  0  0
   -4.6514    0.5217   -1.3436 C   0  0  0  0  0  0  0  0  0  0  0  0
   -4.8535    0.7708    1.1433 C   0  0  0  0  0  0  0  0  0  0  0  0
   -3.0683    2.0172   -0.1007 C   0  0  0  0  0  0  0  0  0  0  0  0
   -1.6147   -2.0614    0.4259 C   0  0  0  0  0  0  0  0  0  0  0  0
    0.7195   -2.0161   -0.4025 C   0  0  0  0  0  0  0  0  0  0  0  0
    2.0535   -1.4141   -0.1389 C   0  0  0  0  0  0  0  0  0  0  0  0
    2.9370   -2.1549    0.7631 C   0  0  0  0  0  0  0  0  0  0  0  0
    4.1260   -1.6003    0.9856 C   0  0  0  0  0  0  0  0  0  0  0  0
    4.4933   -0.3160    0.3439 C   0  0  0  0  0  0  0  0  0  0  0  0
    3.8615    1.5195   -1.1338 C   0  0  0  0  0  0  0  0  0  0  0  0
    3.4507    2.7059   -0.2809 C   0  0  0  0  0  0  0  0  0  0  0  0
    1.6076    3.7787    0.7067 C   0  0  0  0  0  0  0  0  0  0  0  0
   -6.0317   -0.5758   -0.0817 H   0  0  0  0  0  0  0  0  0  0  0  0
   -2.9648    1.5657   -2.2191 H   0  0  0  0  0  0  0  0  0  0  0  0
   -3.3121    1.9939    2.0539 H   0  0  0  0  0  0  0  0  0  0  0  0
   -4.1522   -2.1003   -0.6644 H   0  0  0  0  0  0  0  0  0  0  0  0
   -4.2938   -1.9259    1.0822 H   0  0  0  0  0  0  0  0  0  0  0  0
   -1.2174    0.2450   -1.0780 H   0  0  0  0  0  0  0  0  0  0  0  0
   -2.3213   -0.8230   -1.9392 H   0  0  0  0  0  0  0  0  0  0  0  0
   -1.4299    0.5101    1.4904 H   0  0  0  0  0  0  0  0  0  0  0  0
   -2.6696   -0.3921    2.3573 H   0  0  0  0  0  0  0  0  0  0  0  0
   -5.3462    1.3549   -1.5059 H   0  0  0  0  0  0  0  0  0  0  0  0
   -4.7681   -0.1605   -2.1946 H   0  0  0  0  0  0  0  0  0  0  0  0
   -5.5519    1.6084    1.0252 H   0  0  0  0  0  0  0  0  0  0  0  0
   -5.1155    0.2678    2.0824 H   0  0  0  0  0  0  0  0  0  0  0  0
   -2.0455    2.4116   -0.0572 H   0  0  0  0  0  0  0  0  0  0  0  0
   -3.7350    2.8768   -0.2410 H   0  0  0  0  0  0  0  0  0  0  0  0
   -1.8237   -2.5783    1.3695 H   0  0  0  0  0  0  0  0  0  0  0  0
   -1.7288   -2.7938   -0.3815 H   0  0  0  0  0  0  0  0  0  0  0  0
    0.0163   -1.0147    1.2624 H   0  0  0  0  0  0  0  0  0  0  0  0
    2.6270   -3.0897    1.2095 H   0  0  0  0  0  0  0  0  0  0  0  0
    4.8525   -2.0705    1.6382 H   0  0  0  0  0  0  0  0  0  0  0  0
    4.9364    1.5659   -1.3401 H   0  0  0  0  0  0  0  0  0  0  0  0
    3.3342    1.5417   -2.0949 H   0  0  0  0  0  0  0  0  0  0  0  0
    3.7318    3.6350   -0.7899 H   0  0  0  0  0  0  0  0  0  0  0  0
    3.9557    2.6705    0.6916 H   0  0  0  0  0  0  0  0  0  0  0  0
    2.0689    3.7437    1.6984 H   0  0  0  0  0  0  0  0  0  0  0  0
    1.8450    4.7258    0.2127 H   0  0  0  0  0  0  0  0  0  0  0  0
    0.5229    3.7084    0.8242 H   0  0  0  0  0  0  0  0  0  0  0  0
  1 18  2  0  0  0  0
  2 22  2  0  0  0  0
  3 24  1  0  0  0  0
  3 25  1  0  0  0  0
  4 17  1  0  0  0  0
  4 18  1  0  0  0  0
  4 43  1  0  0  0  0
  5  6  1  0  0  0  0
  5 19  2  0  0  0  0
  6 22  1  0  0  0  0
  6 23  1  0  0  0  0
  7 11  1  0  0  0  0
  7 12  1  0  0  0  0
  7 13  1  0  0  0  0
  7 17  1  0  0  0  0
  8 11  1  0  0  0  0
  8 14  1  0  0  0  0
  8 15  1  0  0  0  0
  8 26  1  0  0  0  0
  9 12  1  0  0  0  0
  9 14  1  0  0  0  0
  9 16  1  0  0  0  0
  9 27  1  0  0  0  0
 10 13  1  0  0  0  0
 10 15  1  0  0  0  0
 10 16  1  0  0  0  0
 10 28  1  0  0  0  0
 11 29  1  0  0  0  0
 11 30  1  0  0  0  0
 12 31  1  0  0  0  0
 12 32  1  0  0  0  0
 13 33  1  0  0  0  0
 13 34  1  0  0  0  0
 14 35  1  0  0  0  0
 14 36  1  0  0  0  0
 15 37  1  0  0  0  0
 15 38  1  0  0  0  0
 16 39  1  0  0  0  0
 16 40  1  0  0  0  0
 17 41  1  0  0  0  0
 17 42  1  0  0  0  0
 18 19  1  0  0  0  0
 19 20  1  0  0  0  0
 20 21  2  0  0  0  0
 20 44  1  0  0  0  0
 21 22  1  0  0  0  0
 21 45  1  0  0  0  0
 23 24  1  0  0  0  0
 23 46  1  0  0  0  0
 23 47  1  0  0  0  0
 24 48  1  0  0  0  0
 24 49  1  0  0  0  0
 25 50  1  0  0  0  0
 25 51  1  0  0  0  0
 25 52  1  0  0  0  0
M  END
> <PUBCHEM_COMPOUND_CID>
17395265

> <PUBCHEM_CONFORMER_RMSD>
0.8

> <PUBCHEM_CONFORMER_DIVERSEORDER>
1
52
61
45
27
55
58
30
17
46
15
31
59
40
47
67
51
5
36
38
34
50
53
65
48
57
13
44
35
25
24
49
22
60
21
41
33
64
42
39
19
26
56
12
32
18
69
11
63
29
9
8
16
66
3
62
68
20
6
43
14
4
10
28
54
7
37
23
2

> <PUBCHEM_MMFF94_PARTIAL_CHARGES>
18
1 -0.57
17 0.3
18 0.63
19 0.44
2 -0.57
20 -0.14
21 -0.14
22 0.62
23 0.3
24 0.28
25 0.28
3 -0.56
4 -0.73
43 0.37
44 0.15
45 0.15
5 -0.51
6 -0.3

> <PUBCHEM_EFFECTIVE_ROTOR_COUNT>
8.2

> <PUBCHEM_PHARMACOPHORE_FEATURES>
10
1 1 acceptor
1 2 acceptor
1 3 acceptor
1 4 donor
1 5 acceptor
6 5 6 19 20 21 22 rings
6 7 8 10 11 13 15 rings
6 7 8 9 11 12 14 rings
6 7 9 10 12 13 16 rings
6 8 9 10 14 15 16 rings

> <PUBCHEM_HEAVY_ATOM_COUNT>
25

> <PUBCHEM_ATOM_DEF_STEREO_COUNT>
0

> <PUBCHEM_ATOM_UDEF_STEREO_COUNT>
0

> <PUBCHEM_BOND_DEF_STEREO_COUNT>
0

> <PUBCHEM_BOND_UDEF_STEREO_COUNT>
0

> <PUBCHEM_ISOTOPIC_ATOM_COUNT>
0

> <PUBCHEM_COMPONENT_COUNT>
1

> <PUBCHEM_CACTVS_TAUTO_COUNT>
2

> <PUBCHEM_CONFORMER_ID>
01096E4100000001

> <PUBCHEM_MMFF94_ENERGY>
55.2511

> <PUBCHEM_FEATURE_SELFOVERLAP>
63.262

> <PUBCHEM_SHAPE_FINGERPRINT>
10670039 82 18261660580557540316
10675989 125 16111233818760902956
11456790 92 18057888133531844993
12166972 35 18260268589988515050
12507557 5 18412549811926122979
12633257 1 18412259562310056017
12978246 48 18410011035219492744
13224815 77 18409728490975156503
13402501 40 18272656757059531621
13583140 156 18060697286402702699
14251764 38 18342175591654853861
14466204 15 18341058454198232904
14866123 147 16036626487154134546
15188451 53 15338825431706284651
15238133 3 18201716254831093726
1601671 61 18410855478141610734
17349148 13 18187649162456612482
192875 21 18261680349653654792
19930381 70 18338234847977044361
20567600 299 18333454265581713688
20715895 44 17981331406484905589
21033648 144 18342465789667522910
21033648 29 17060351720547645591
21623110 236 18412257303821909577
21860390 5 18335133224406225398
22122407 14 18336250345727495385
23227448 37 18409166576378002511
235170 7 13984668078640667170
23559900 14 18410302401706073523
3459 110 17985523607987359491
345986 75 17271188710609026202
351380 180 18201442497040351191
3680242 22 18339634663163924848
38570 142 17914873389386638860
474 4 18408884057402511267
5081480 168 17390769412874887326
5104073 3 18202279186977100403
5252454 2 18198054781772815124
6328613 192 18341324480547338660
653340 110 18191309480058835344
8509985 295 18343027705087661546

> <PUBCHEM_SHAPE_MULTIPOLES>
481.94
11.56
3.36
1.26
1.54
1.96
-0.07
2.01
0.75
2.98
0.21
-0.7
0.09
-0.51

> <PUBCHEM_SHAPE_SELFOVERLAP>
1029.859

> <PUBCHEM_SHAPE_VOLUME>
260.8

> <PUBCHEM_COORDINATE_TYPE>
2
5
10

$$$$

