47205289
  -OEChem-06241222583D

 29 31  0     0  0  0  0  0  0999 V2000
   -0.3368   -1.2886    1.0590 O   0  0  0  0  0  0  0  0  0  0  0  0
   -1.3133    0.8133    0.9844 N   0  0  0  0  0  0  0  0  0  0  0  0
    2.3591    1.9598   -0.3217 N   0  0  0  0  0  0  0  0  0  0  0  0
    1.0904    1.7993    0.0901 N   0  0  0  0  0  0  0  0  0  0  0  0
   -4.1121    0.8565   -0.4936 N   0  0  0  0  0  0  0  0  0  0  0  0
   -4.8852    0.2780   -1.4284 N   0  0  0  0  0  0  0  0  0  0  0  0
    2.2187   -0.1917    0.0784 C   0  0  0  0  0  0  0  0  0  0  0  0
    1.0087    0.4892    0.3327 C   0  0  0  0  0  0  0  0  0  0  0  0
    3.0899    0.8028   -0.3517 C   0  0  0  0  0  0  0  0  0  0  0  0
   -2.6138    0.4114    1.4704 C   0  0  0  0  0  0  0  0  0  0  0  0
   -0.2297   -0.0669    0.8016 C   0  0  0  0  0  0  0  0  0  0  0  0
   -3.5183   -0.0298    0.3563 C   0  0  0  0  0  0  0  0  0  0  0  0
    2.6748   -1.5179    0.1605 C   0  0  0  0  0  0  0  0  0  0  0  0
    4.4153    0.5505   -0.7123 C   0  0  0  0  0  0  0  0  0  0  0  0
    4.0008   -1.7926   -0.1965 C   0  0  0  0  0  0  0  0  0  0  0  0
    4.8546   -0.7746   -0.6256 C   0  0  0  0  0  0  0  0  0  0  0  0
   -3.9319   -1.2748   -0.0507 C   0  0  0  0  0  0  0  0  0  0  0  0
   -4.7710   -1.0239   -1.1528 C   0  0  0  0  0  0  0  0  0  0  0  0
   -3.0496    1.2688    1.9943 H   0  0  0  0  0  0  0  0  0  0  0  0
   -2.4892   -0.4004    2.1953 H   0  0  0  0  0  0  0  0  0  0  0  0
   -1.1815    1.7945    0.7550 H   0  0  0  0  0  0  0  0  0  0  0  0
    2.0280   -2.3244    0.4911 H   0  0  0  0  0  0  0  0  0  0  0  0
    2.6666    2.8919   -0.5698 H   0  0  0  0  0  0  0  0  0  0  0  0
    5.0770    1.3424   -1.0450 H   0  0  0  0  0  0  0  0  0  0  0  0
    4.3695   -2.8135   -0.1387 H   0  0  0  0  0  0  0  0  0  0  0  0
    5.8795   -1.0151   -0.8971 H   0  0  0  0  0  0  0  0  0  0  0  0
   -3.6645   -2.2262    0.3852 H   0  0  0  0  0  0  0  0  0  0  0  0
   -4.0339    1.8660   -0.4948 H   0  0  0  0  0  0  0  0  0  0  0  0
   -5.3039   -1.7358   -1.7667 H   0  0  0  0  0  0  0  0  0  0  0  0
  1 11  2  0  0  0  0
  2 10  1  0  0  0  0
  2 11  1  0  0  0  0
  2 21  1  0  0  0  0
  3  4  1  0  0  0  0
  3  9  1  0  0  0  0
  3 23  1  0  0  0  0
  4  8  2  0  0  0  0
  5  6  1  0  0  0  0
  5 12  1  0  0  0  0
  5 28  1  0  0  0  0
  6 18  2  0  0  0  0
  7  8  1  0  0  0  0
  7  9  1  0  0  0  0
  7 13  2  0  0  0  0
  8 11  1  0  0  0  0
  9 14  2  0  0  0  0
 10 12  1  0  0  0  0
 10 19  1  0  0  0  0
 10 20  1  0  0  0  0
 12 17  2  0  0  0  0
 13 15  1  0  0  0  0
 13 22  1  0  0  0  0
 14 16  1  0  0  0  0
 14 24  1  0  0  0  0
 15 16  2  0  0  0  0
 15 25  1  0  0  0  0
 16 26  1  0  0  0  0
 17 18  1  0  0  0  0
 17 27  1  0  0  0  0
 18 29  1  0  0  0  0
M  END
> <PUBCHEM_COMPOUND_CID>
47205289

> <PUBCHEM_CONFORMER_RMSD>
0.6

> <PUBCHEM_CONFORMER_DIVERSEORDER>
1
53
43
71
44
73
49
5
67
32
54
59
35
24
40
33
6
60
68
56
30
72
50
11
23
42
55
20
9
58
45
52
74
34
4
7
28
36
77
31
37
46
47
69
21
75
14
38
48
12
17
39
41
13
16
8
63
18
61
29
57
10
51
65
2
66
3
19
26
25
70
15
62
27
22
76
64

> <PUBCHEM_MMFF94_PARTIAL_CHARGES>
26
1 -0.57
10 0.48
11 0.72
12 -0.33
13 -0.15
14 -0.15
15 -0.15
16 -0.15
17 -0.15
18 0.14
2 -0.73
21 0.37
22 0.15
23 0.27
24 0.15
25 0.15
26 0.15
27 0.15
28 0.27
29 0.15
3 0.3
4 -0.71
5 0.3
6 -0.71
8 0.2
9 -0.15

> <PUBCHEM_EFFECTIVE_ROTOR_COUNT>
4

> <PUBCHEM_PHARMACOPHORE_FEATURES>
9
1 1 acceptor
1 2 donor
1 3 donor
1 4 acceptor
1 5 donor
1 6 acceptor
5 3 4 7 8 9 rings
5 5 6 12 17 18 rings
6 7 9 13 14 15 16 rings

> <PUBCHEM_HEAVY_ATOM_COUNT>
18

> <PUBCHEM_ATOM_DEF_STEREO_COUNT>
0

> <PUBCHEM_ATOM_UDEF_STEREO_COUNT>
0

> <PUBCHEM_BOND_DEF_STEREO_COUNT>
0

> <PUBCHEM_BOND_UDEF_STEREO_COUNT>
0

> <PUBCHEM_ISOTOPIC_ATOM_COUNT>
0

> <PUBCHEM_COMPONENT_COUNT>
1

> <PUBCHEM_CACTVS_TAUTO_COUNT>
14

> <PUBCHEM_CONFORMER_ID>
02D04BA900000001

> <PUBCHEM_MMFF94_ENERGY>
22.3014

> <PUBCHEM_FEATURE_SELFOVERLAP>
45.76

> <PUBCHEM_SHAPE_FINGERPRINT>
10062212 137 18040989683215115139
10498660 4 16056886823120190405
11046707 91 17240202136285703651
11089746 13 14117519788150337126
11471102 20 18343013390083035000
11552529 35 9150587107707919045
11796584 16 17240480338302351127
12236239 1 17894908537893751120
12363563 72 16081089251680381115
12390115 104 8645041591595227898
12500047 106 16343696604078156906
12555020 224 18342170094334358266
12670546 177 18413672409140304135
13167823 11 18040994046532739287
13675066 3 7060385820712192771
14252887 29 6194567696980664276
14573314 32 17704352182000004574
14576447 43 18260829284946793118
15183329 4 18335990869699498101
15188451 53 4750577998918999317
15209294 21 11095880458452680595
15239154 128 12175617360818165342
15848700 24 18411979187472772532
1601671 61 14046021901455296734
17349148 13 17749380473165898134
17357779 13 17846779619706476389
1798214 20 18260551129694907190
18186145 218 17989205932563331241
18222031 100 18262235625255008850
18915474 69 18041282080198908567
19862831 5 18413673513115528891
200 152 18187362134081575425
20645477 70 18342167886747301594
21637258 2 16733535152846902750
221357 26 18343309171569825093
221490 88 18267859480521752299
22393880 68 18201731634708235779
22646028 1 17894629262056340627
22646028 28 17894909633368880923
231179 274 16917066646660568296
23402539 116 18187358865490338800
23402655 69 18342173388267786373
23557571 272 15141509385150468905
23559900 14 18336548205561061864
26918003 58 6122507882597690075
29717793 49 17967246524661131404
32948 21 16988564640798486086
351380 3 17531247236498327263
4028521 119 17275114942109092093
4072396 5 18130518470369907928
4280585 95 17468752348206304374
5281201 14 17917705777930301661
602551 16 15430040941583303902
633830 44 17775282776930665881
7471813 234 17967250901507625944
7495541 125 15068627084862431106
960060 61 18273208716592120870

> <PUBCHEM_SHAPE_MULTIPOLES>
339.66
11.28
1.67
1.12
5.44
0.03
0.02
2.87
-4.56
-1.06
-0.07
1.1
0
-0.49

> <PUBCHEM_SHAPE_SELFOVERLAP>
748.18

> <PUBCHEM_SHAPE_VOLUME>
183.8

> <PUBCHEM_COORDINATE_TYPE>
2
5
10

$$$$

