13643
  -OEChem-06241222393D

 21 21  0     0  0  0  0  0  0999 V2000
    2.5043    1.4531    1.0230 O   0  0  0  0  0  0  0  0  0  0  0  0
    1.8998   -0.3202    0.0468 N   0  0  0  0  0  0  0  0  0  0  0  0
    2.2619    0.9513   -0.0813 N   0  0  0  0  0  0  0  0  0  0  0  0
    0.8829   -0.7650   -0.8720 C   0  0  0  0  0  0  0  0  0  0  0  0
   -0.4885   -0.3792   -0.4298 C   0  0  0  0  0  0  0  0  0  0  0  0
   -1.2257   -1.2378    0.3856 C   0  0  0  0  0  0  0  0  0  0  0  0
   -1.0337    0.8400   -0.8321 C   0  0  0  0  0  0  0  0  0  0  0  0
   -2.5084   -0.8773    0.7986 C   0  0  0  0  0  0  0  0  0  0  0  0
   -2.3163    1.2007   -0.4189 C   0  0  0  0  0  0  0  0  0  0  0  0
    3.0774   -1.2076   -0.0165 C   0  0  0  0  0  0  0  0  0  0  0  0
   -3.0536    0.3420    0.3965 C   0  0  0  0  0  0  0  0  0  0  0  0
    0.8890   -1.8613   -0.9632 H   0  0  0  0  0  0  0  0  0  0  0  0
    1.0676   -0.4118   -1.8978 H   0  0  0  0  0  0  0  0  0  0  0  0
   -0.8126   -2.1898    0.7085 H   0  0  0  0  0  0  0  0  0  0  0  0
   -0.4730    1.5175   -1.4704 H   0  0  0  0  0  0  0  0  0  0  0  0
   -3.0823   -1.5455    1.4340 H   0  0  0  0  0  0  0  0  0  0  0  0
   -2.7413    2.1496   -0.7327 H   0  0  0  0  0  0  0  0  0  0  0  0
    3.8335   -0.9203    0.7251 H   0  0  0  0  0  0  0  0  0  0  0  0
    3.5460   -1.1987   -1.0086 H   0  0  0  0  0  0  0  0  0  0  0  0
    2.7936   -2.2393    0.2229 H   0  0  0  0  0  0  0  0  0  0  0  0
   -4.0522    0.6227    0.7182 H   0  0  0  0  0  0  0  0  0  0  0  0
  1  3  2  0  0  0  0
  2  3  1  0  0  0  0
  2  4  1  0  0  0  0
  2 10  1  0  0  0  0
  4  5  1  0  0  0  0
  4 12  1  0  0  0  0
  4 13  1  0  0  0  0
  5  6  2  0  0  0  0
  5  7  1  0  0  0  0
  6  8  1  0  0  0  0
  6 14  1  0  0  0  0
  7  9  2  0  0  0  0
  7 15  1  0  0  0  0
  8 11  2  0  0  0  0
  8 16  1  0  0  0  0
  9 11  1  0  0  0  0
  9 17  1  0  0  0  0
 10 18  1  0  0  0  0
 10 19  1  0  0  0  0
 10 20  1  0  0  0  0
 11 21  1  0  0  0  0
M  END
> <PUBCHEM_COMPOUND_CID>
13643

> <PUBCHEM_CONFORMER_RMSD>
0.6

> <PUBCHEM_CONFORMER_DIVERSEORDER>
2
12
13
10
7
17
8
18
9
15
1
3
14
11
16
5
4
6

> <PUBCHEM_MMFF94_PARTIAL_CHARGES>
16
1 -0.16
10 0.27
11 -0.15
14 0.15
15 0.15
16 0.15
17 0.15
2 -0.36
21 0.15
3 -0.01
4 0.41
5 -0.14
6 -0.15
7 -0.15
8 -0.15
9 -0.15

> <PUBCHEM_EFFECTIVE_ROTOR_COUNT>
3

> <PUBCHEM_PHARMACOPHORE_FEATURES>
1
6 5 6 7 8 9 11 rings

> <PUBCHEM_HEAVY_ATOM_COUNT>
11

> <PUBCHEM_ATOM_DEF_STEREO_COUNT>
0

> <PUBCHEM_ATOM_UDEF_STEREO_COUNT>
0

> <PUBCHEM_BOND_DEF_STEREO_COUNT>
0

> <PUBCHEM_BOND_UDEF_STEREO_COUNT>
0

> <PUBCHEM_ISOTOPIC_ATOM_COUNT>
0

> <PUBCHEM_COMPONENT_COUNT>
1

> <PUBCHEM_CACTVS_TAUTO_COUNT>
1

> <PUBCHEM_CONFORMER_ID>
0000354B00000002

> <PUBCHEM_MMFF94_ENERGY>
31.4439

> <PUBCHEM_FEATURE_SELFOVERLAP>
5.074

> <PUBCHEM_SHAPE_FINGERPRINT>
10857977 72 18131626755977546221
124424 183 18268154334532495430
12696612 119 18342173311159043172
12932764 1 18335695027165651622
15775835 57 17603590677399308720
16945 1 17489586766585995183
19973954 147 18411698789915778700
20201158 50 18335982085547060447
20528008 55 18413109450823573975
20645464 45 18409726291983478015
20653085 51 17313375794665857865
20715346 28 18342459239842415597
20871998 184 18339629045848276831
21028194 46 18335421300351939493
23552423 10 17560790009686948439
3248919 1 17846501391766907806
369184 2 18410575085011336015
5084963 1 18059284465420976671

> <PUBCHEM_SHAPE_MULTIPOLES>
210.54
4.98
1.47
0.93
1.5
0.12
0.02
0.14
1.02
0.18
0.16
0.06
0.1
0.72

> <PUBCHEM_SHAPE_SELFOVERLAP>
428.261

> <PUBCHEM_SHAPE_VOLUME>
123.8

> <PUBCHEM_COORDINATE_TYPE>
2
5
10

$$$$

