3904
  -OEChem-06251223452D

 55 57  0     1  0  0  0  0  0999 V2000
   13.2747   -0.1119    0.0000 O   0  0  0  0  0  0  0  0  0  0  0  0
   10.6603   -0.5773    0.0000 O   0  0  0  0  0  0  0  0  0  0  0  0
    5.4641   -1.5773    0.0000 O   0  0  0  0  0  0  0  0  0  0  0  0
    2.0000   -0.5773    0.0000 O   0  5  0  0  0  0  0  0  0  0  0  0
    2.8660    0.9227    0.0000 O   0  0  0  0  0  0  0  0  0  0  0  0
    2.0000   -3.5773    0.0000 O   0  5  0  0  0  0  0  0  0  0  0  0
    3.7320   -3.5773    0.0000 O   0  0  0  0  0  0  0  0  0  0  0  0
   11.5263    0.9227    0.0000 N   0  0  0  0  0  0  0  0  0  0  0  0
   11.5263    2.9227    0.0000 N   0  0  0  0  0  0  0  0  0  0  0  0
    8.9282    1.4227    0.0000 N   0  0  0  0  0  0  0  0  0  0  0  0
   13.2862    2.9574    0.0000 N   0  0  0  0  0  0  0  0  0  0  0  0
   14.1923    1.4019    0.0000 N   0  0  0  0  0  0  0  0  0  0  0  0
    4.5981   -0.0773    0.0000 N   0  0  0  0  0  0  0  0  0  0  0  0
   15.0564    2.9468    0.0000 N   0  0  0  0  0  0  0  0  0  0  0  0
   10.6603    1.4227    0.0000 C   0  0  3  0  0  0  0  0  0  0  0  0
   10.6603    2.4227    0.0000 C   0  0  0  0  0  0  0  0  0  0  0  0
    9.7942    0.9227    0.0000 C   0  0  0  0  0  0  0  0  0  0  0  0
   12.3923    1.4227    0.0000 C   0  0  0  0  0  0  0  0  0  0  0  0
   12.3923    2.4227    0.0000 C   0  0  0  0  0  0  0  0  0  0  0  0
   13.2862    0.8880    0.0000 C   0  0  0  0  0  0  0  0  0  0  0  0
   11.5263   -0.0773    0.0000 C   0  0  0  0  0  0  0  0  0  0  0  0
    8.0622    0.9227    0.0000 C   0  0  0  0  0  0  0  0  0  0  0  0
   14.1923    2.4435    0.0000 C   0  0  0  0  0  0  0  0  0  0  0  0
    7.1962    1.4227    0.0000 C   0  0  0  0  0  0  0  0  0  0  0  0
    8.0622   -0.0773    0.0000 C   0  0  0  0  0  0  0  0  0  0  0  0
    3.7320   -0.5773    0.0000 C   0  0  3  0  0  0  0  0  0  0  0  0
    6.3301   -0.0773    0.0000 C   0  0  0  0  0  0  0  0  0  0  0  0
    3.7320   -1.5773    0.0000 C   0  0  0  0  0  0  0  0  0  0  0  0
    6.3301    0.9227    0.0000 C   0  0  0  0  0  0  0  0  0  0  0  0
    7.1962   -0.5773    0.0000 C   0  0  0  0  0  0  0  0  0  0  0  0
    5.4641   -0.5773    0.0000 C   0  0  0  0  0  0  0  0  0  0  0  0
    2.8660   -2.0773    0.0000 C   0  0  0  0  0  0  0  0  0  0  0  0
    2.8660   -0.0773    0.0000 C   0  0  0  0  0  0  0  0  0  0  0  0
    2.8660   -3.0773    0.0000 C   0  0  0  0  0  0  0  0  0  0  0  0
   10.6603    0.8027    0.0000 H   0  0  0  0  0  0  0  0  0  0  0  0
   10.4482    3.0053    0.0000 H   0  0  0  0  0  0  0  0  0  0  0  0
   10.0497    2.3150    0.0000 H   0  0  0  0  0  0  0  0  0  0  0  0
    9.3957    0.4477    0.0000 H   0  0  0  0  0  0  0  0  0  0  0  0
   10.1928    0.4477    0.0000 H   0  0  0  0  0  0  0  0  0  0  0  0
   11.5263    3.5427    0.0000 H   0  0  0  0  0  0  0  0  0  0  0  0
    8.9282    2.0427    0.0000 H   0  0  0  0  0  0  0  0  0  0  0  0
   13.2791    3.5773    0.0000 H   0  0  0  0  0  0  0  0  0  0  0  0
   12.0632   -0.3873    0.0000 H   0  0  0  0  0  0  0  0  0  0  0  0
    7.1962    2.0427    0.0000 H   0  0  0  0  0  0  0  0  0  0  0  0
    8.5991   -0.3873    0.0000 H   0  0  0  0  0  0  0  0  0  0  0  0
    3.7320    0.0427    0.0000 H   0  0  0  0  0  0  0  0  0  0  0  0
    3.9441   -2.1599    0.0000 H   0  0  0  0  0  0  0  0  0  0  0  0
    4.3426   -1.4696    0.0000 H   0  0  0  0  0  0  0  0  0  0  0  0
    5.7932    1.2327    0.0000 H   0  0  0  0  0  0  0  0  0  0  0  0
    7.1962   -1.1973    0.0000 H   0  0  0  0  0  0  0  0  0  0  0  0
    4.5981    0.5427    0.0000 H   0  0  0  0  0  0  0  0  0  0  0  0
    2.6540   -1.4947    0.0000 H   0  0  0  0  0  0  0  0  0  0  0  0
    2.2554   -2.1850    0.0000 H   0  0  0  0  0  0  0  0  0  0  0  0
   15.5945    2.6389    0.0000 H   0  0  0  0  0  0  0  0  0  0  0  0
   15.0540    3.5668    0.0000 H   0  0  0  0  0  0  0  0  0  0  0  0
  1 20  2  0  0  0  0
  2 21  2  0  0  0  0
  3 31  2  0  0  0  0
  4 33  1  0  0  0  0
  5 33  2  0  0  0  0
  6 34  1  0  0  0  0
  7 34  2  0  0  0  0
  8 15  1  0  0  0  0
  8 18  1  0  0  0  0
  8 21  1  0  0  0  0
  9 16  1  0  0  0  0
  9 19  1  0  0  0  0
  9 40  1  0  0  0  0
 10 17  1  0  0  0  0
 10 22  1  0  0  0  0
 10 41  1  0  0  0  0
 11 19  1  0  0  0  0
 11 23  1  0  0  0  0
 11 42  1  0  0  0  0
 12 20  1  0  0  0  0
 12 23  2  0  0  0  0
 13 26  1  0  0  0  0
 13 31  1  0  0  0  0
 13 51  1  0  0  0  0
 14 23  1  0  0  0  0
 14 54  1  0  0  0  0
 14 55  1  0  0  0  0
 15 16  1  0  0  0  0
 15 17  1  0  0  0  0
 15 35  1  0  0  0  0
 16 36  1  0  0  0  0
 16 37  1  0  0  0  0
 17 38  1  0  0  0  0
 17 39  1  0  0  0  0
 18 19  2  0  0  0  0
 18 20  1  0  0  0  0
 21 43  1  0  0  0  0
 22 24  2  0  0  0  0
 22 25  1  0  0  0  0
 24 29  1  0  0  0  0
 24 44  1  0  0  0  0
 25 30  2  0  0  0  0
 25 45  1  0  0  0  0
 26 28  1  0  0  0  0
 26 33  1  0  0  0  0
 26 46  1  0  0  0  0
 27 29  2  0  0  0  0
 27 30  1  0  0  0  0
 27 31  1  0  0  0  0
 28 32  1  0  0  0  0
 28 47  1  0  0  0  0
 28 48  1  0  0  0  0
 29 49  1  0  0  0  0
 30 50  1  0  0  0  0
 32 34  1  0  0  0  0
 32 52  1  0  0  0  0
 32 53  1  0  0  0  0
M  CHG  2   4  -1   6  -1
M  END
> <PUBCHEM_COMPOUND_CID>
3904

> <PUBCHEM_COMPOUND_CANONICALIZED>
1

> <PUBCHEM_CACTVS_COMPLEXITY>
900

> <PUBCHEM_CACTVS_HBOND_ACCEPTOR>
9

> <PUBCHEM_CACTVS_HBOND_DONOR>
5

> <PUBCHEM_CACTVS_ROTATABLE_BOND>
7

> <PUBCHEM_CACTVS_SUBSKEYS>
AAADceB7uAAAAAAAAAAAAAAAAAAAAAAAAAAwQIAAAAAAAACBAAAAHgAQAAAADCjBmAYxyIPAAACoAiXS/ACCAAElAgAJiIGIZMiKYDLA1bGUIQhslgLYyce8rwCeCAAAAAAAAAAQAAAAAAAAAAAAAAAAAA==

> <PUBCHEM_IUPAC_OPENEYE_NAME>
2-[[4-[(2-amino-5-formyl-4-oxo-1,6,7,8-tetrahydropteridin-6-yl)methylamino]benzoyl]amino]pentanedioate

> <PUBCHEM_IUPAC_CAS_NAME>
2-[[[4-[(2-amino-5-formyl-4-oxo-1,6,7,8-tetrahydropteridin-6-yl)methylamino]phenyl]-oxomethyl]amino]pentanedioate

> <PUBCHEM_IUPAC_NAME>
2-[[4-[(2-amino-5-formyl-4-oxo-1,6,7,8-tetrahydropteridin-6-yl)methylamino]benzoyl]amino]pentanedioate

> <PUBCHEM_IUPAC_SYSTEMATIC_NAME>
2-[[4-[(2-azanyl-5-methanoyl-4-oxidanylidene-1,6,7,8-tetrahydropteridin-6-yl)methylamino]phenyl]carbonylamino]pentanedioate

> <PUBCHEM_IUPAC_TRADITIONAL_NAME>
2-[[4-[(2-amino-5-formyl-4-keto-1,6,7,8-tetrahydropteridin-6-yl)methylamino]benzoyl]amino]glutarate

> <PUBCHEM_IUPAC_INCHI>
InChI=1S/C20H23N7O7/c21-20-25-16-15(18(32)26-20)27(9-28)12(8-23-16)7-22-11-3-1-10(2-4-11)17(31)24-13(19(33)34)5-6-14(29)30/h1-4,9,12-13,22H,5-8H2,(H,24,31)(H,29,30)(H,33,34)(H4,21,23,25,26,32)/p-2

> <PUBCHEM_IUPAC_INCHIKEY>
VVIAGPKUTFNRDU-UHFFFAOYSA-L

> <PUBCHEM_XLOGP3_AA>
0.1

> <PUBCHEM_EXACT_MASS>
471.150246

> <PUBCHEM_MOLECULAR_FORMULA>
C20H21N7O7-2

> <PUBCHEM_MOLECULAR_WEIGHT>
471.42344

> <PUBCHEM_OPENEYE_CAN_SMILES>
C1C(N(C2=C(N1)NC(=NC2=O)N)C=O)CNC3=CC=C(C=C3)C(=O)NC(CCC(=O)[O-])C(=O)[O-]

> <PUBCHEM_OPENEYE_ISO_SMILES>
C1C(N(C2=C(N1)NC(=NC2=O)N)C=O)CNC3=CC=C(C=C3)C(=O)NC(CCC(=O)[O-])C(=O)[O-]

> <PUBCHEM_CACTVS_TPSA>
221

> <PUBCHEM_MONOISOTOPIC_WEIGHT>
471.150246

> <PUBCHEM_TOTAL_CHARGE>
-2

> <PUBCHEM_HEAVY_ATOM_COUNT>
34

> <PUBCHEM_ATOM_DEF_STEREO_COUNT>
0

> <PUBCHEM_ATOM_UDEF_STEREO_COUNT>
2

> <PUBCHEM_BOND_DEF_STEREO_COUNT>
0

> <PUBCHEM_BOND_UDEF_STEREO_COUNT>
0

> <PUBCHEM_ISOTOPIC_ATOM_COUNT>
0

> <PUBCHEM_COMPONENT_COUNT>
1

> <PUBCHEM_CACTVS_TAUTO_COUNT>
85

> <PUBCHEM_COORDINATE_TYPE>
1
5
255

> <PUBCHEM_BONDANNOTATIONS>
11  19  8
11  23  8
12  20  8
12  23  8
15  17  3
18  19  8
18  20  8
22  24  8
22  25  8
24  29  8
25  30  8
26  28  3
27  29  8
27  30  8

$$$$

