11862
  -OEChem-06261206133D

 13 13  0     0  0  0  0  0  0999 V2000
    1.4218   -3.0511    0.0001 I   0  0  0  0  0  0  0  0  0  0  0  0
    1.4203    3.0518   -0.0002 I   0  0  0  0  0  0  0  0  0  0  0  0
   -3.7393   -0.0008   -0.0015 I   0  0  0  0  0  0  0  0  0  0  0  0
    2.4945    0.0002   -0.0013 O   0  0  0  0  0  0  0  0  0  0  0  0
    1.1288    0.0003    0.0002 C   0  0  0  0  0  0  0  0  0  0  0  0
    0.4315   -1.2079    0.0001 C   0  0  0  0  0  0  0  0  0  0  0  0
    0.4310    1.2082    0.0006 C   0  0  0  0  0  0  0  0  0  0  0  0
   -0.9635   -1.2081    0.0004 C   0  0  0  0  0  0  0  0  0  0  0  0
   -0.9639    1.2078    0.0009 C   0  0  0  0  0  0  0  0  0  0  0  0
   -1.6612   -0.0003    0.0009 C   0  0  0  0  0  0  0  0  0  0  0  0
   -1.5099   -2.1490    0.0001 H   0  0  0  0  0  0  0  0  0  0  0  0
   -1.5108    2.1484    0.0007 H   0  0  0  0  0  0  0  0  0  0  0  0
    2.8031    0.9226   -0.0013 H   0  0  0  0  0  0  0  0  0  0  0  0
  1  6  1  0  0  0  0
  2  7  1  0  0  0  0
  3 10  1  0  0  0  0
  4  5  1  0  0  0  0
  4 13  1  0  0  0  0
  5  6  2  0  0  0  0
  5  7  1  0  0  0  0
  6  8  1  0  0  0  0
  7  9  2  0  0  0  0
  8 10  2  0  0  0  0
  8 11  1  0  0  0  0
  9 10  1  0  0  0  0
  9 12  1  0  0  0  0
M  END
> <PUBCHEM_COMPOUND_CID>
11862

> <PUBCHEM_CONFORMER_RMSD>
0.4

> <PUBCHEM_CONFORMER_DIVERSEORDER>
1

> <PUBCHEM_MMFF94_PARTIAL_CHARGES>
13
1 -0.08
10 0.08
11 0.15
12 0.15
13 0.45
2 -0.08
3 -0.08
4 -0.53
5 0.08
6 0.08
7 0.08
8 -0.15
9 -0.15

> <PUBCHEM_EFFECTIVE_ROTOR_COUNT>
0

> <PUBCHEM_PHARMACOPHORE_FEATURES>
5
1 1 hydrophobe
1 2 hydrophobe
1 3 hydrophobe
1 4 donor
6 5 6 7 8 9 10 rings

> <PUBCHEM_HEAVY_ATOM_COUNT>
10

> <PUBCHEM_ATOM_DEF_STEREO_COUNT>
0

> <PUBCHEM_ATOM_UDEF_STEREO_COUNT>
0

> <PUBCHEM_BOND_DEF_STEREO_COUNT>
0

> <PUBCHEM_BOND_UDEF_STEREO_COUNT>
0

> <PUBCHEM_ISOTOPIC_ATOM_COUNT>
0

> <PUBCHEM_COMPONENT_COUNT>
1

> <PUBCHEM_CACTVS_TAUTO_COUNT>
2

> <PUBCHEM_CONFORMER_ID>
00002E5600000001

> <PUBCHEM_MMFF94_ENERGY>
22.3213

> <PUBCHEM_FEATURE_SELFOVERLAP>
25.371

> <PUBCHEM_SHAPE_FINGERPRINT>
1 1 18339081488803800375
12423570 1 6695806400630870427
13380535 76 17976544909724091621
13380536 305 18338509738219952197
14817 1 5009674567401749645
161256 15 18192993944308498974
16945 1 18410575089200684803
19021347 4 17834115247340748361
193761 8 17762338415409944324
20511035 2 17842549656803343106
20645477 70 18341058441435085399
20871998 184 17395587537247315087
20871998 22 18047188841231331559
21040471 1 17906453225370604481
21524375 3 17910684167784405817
2334 1 17978510828108937987
23526114 1 18194683666131383653
23552423 10 18408888399893730143
241688 4 17906451378529094009
2748010 2 18052812555396494103
7364860 26 18409729560247692929
81228 2 17402615641357108995

> <PUBCHEM_SHAPE_MULTIPOLES>
235.73
4.11
3.78
0.7
4.88
0
0
0
0
-3.81
0
0.04
0
0

> <PUBCHEM_SHAPE_SELFOVERLAP>
425.207

> <PUBCHEM_SHAPE_VOLUME>
159.6

> <PUBCHEM_COORDINATE_TYPE>
2
5
10

$$$$

