3634
  -OEChem-06251223333D

 49 51  0     0  0  0  0  0  0999 V2000
   -3.6888    0.9843    0.0071 S   0  0  0  0  0  0  0  0  0  0  0  0
   -0.2907   -1.8154   -0.3581 O   0  0  0  0  0  0  0  0  0  0  0  0
   -2.9703    4.2405   -1.1172 O   0  0  0  0  0  0  0  0  0  0  0  0
    5.1775   -0.4126   -0.1194 N   0  0  0  0  0  0  0  0  0  0  0  0
    1.4921   -0.0832   -0.1056 N   0  0  0  0  0  0  0  0  0  0  0  0
    3.7874   -0.8553   -0.1278 C   0  0  0  0  0  0  0  0  0  0  0  0
    2.8516    0.3489   -0.0798 C   0  0  0  0  0  0  0  0  0  0  0  0
    0.4014    0.8191   -0.0482 C   0  0  0  0  0  0  0  0  0  0  0  0
   -0.9436    0.4091   -0.0524 C   0  0  0  0  0  0  0  0  0  0  0  0
   -1.9585    1.3660    0.0265 C   0  0  0  0  0  0  0  0  0  0  0  0
    6.0833   -1.5594   -0.2023 C   0  0  0  0  0  0  0  0  0  0  0  0
    5.4605    0.3728    1.0829 C   0  0  0  0  0  0  0  0  0  0  0  0
   -1.6085    2.7246    0.1092 C   0  0  0  0  0  0  0  0  0  0  0  0
   -1.2216   -1.0437   -0.1429 C   0  0  0  0  0  0  0  0  0  0  0  0
    0.7335    2.1705    0.0360 C   0  0  0  0  0  0  0  0  0  0  0  0
   -2.5863   -1.5954    0.0293 C   0  0  0  0  0  0  0  0  0  0  0  0
   -0.2723    3.1245    0.1151 C   0  0  0  0  0  0  0  0  0  0  0  0
   -3.7207   -0.7841    0.1139 C   0  0  0  0  0  0  0  0  0  0  0  0
    5.8065   -2.3890   -1.4445 C   0  0  0  0  0  0  0  0  0  0  0  0
    6.8869    0.8956    1.0739 C   0  0  0  0  0  0  0  0  0  0  0  0
   -2.6332    3.8162    0.1949 C   0  0  0  0  0  0  0  0  0  0  0  0
   -2.7225   -2.9928    0.1073 C   0  0  0  0  0  0  0  0  0  0  0  0
   -4.9793   -1.3883    0.2764 C   0  0  0  0  0  0  0  0  0  0  0  0
   -3.9773   -3.5778    0.2704 C   0  0  0  0  0  0  0  0  0  0  0  0
   -5.1072   -2.7749    0.3553 C   0  0  0  0  0  0  0  0  0  0  0  0
    3.5753   -1.5334    0.7100 H   0  0  0  0  0  0  0  0  0  0  0  0
    3.5445   -1.3949   -1.0499 H   0  0  0  0  0  0  0  0  0  0  0  0
    3.0700    1.0072   -0.9300 H   0  0  0  0  0  0  0  0  0  0  0  0
    2.9856    0.8990    0.8544 H   0  0  0  0  0  0  0  0  0  0  0  0
    1.2945   -1.0735   -0.1611 H   0  0  0  0  0  0  0  0  0  0  0  0
    7.1214   -1.2244   -0.2960 H   0  0  0  0  0  0  0  0  0  0  0  0
    6.0193   -2.1975    0.6881 H   0  0  0  0  0  0  0  0  0  0  0  0
    4.8535    1.2804    1.1221 H   0  0  0  0  0  0  0  0  0  0  0  0
    5.2751   -0.1963    2.0024 H   0  0  0  0  0  0  0  0  0  0  0  0
    1.7521    2.5441    0.0422 H   0  0  0  0  0  0  0  0  0  0  0  0
   -0.0018    4.1754    0.1761 H   0  0  0  0  0  0  0  0  0  0  0  0
    4.9052   -3.0023   -1.3472 H   0  0  0  0  0  0  0  0  0  0  0  0
    5.7212   -1.7656   -2.3411 H   0  0  0  0  0  0  0  0  0  0  0  0
    6.6368   -3.0848   -1.6113 H   0  0  0  0  0  0  0  0  0  0  0  0
    7.6202    0.1142    1.2956 H   0  0  0  0  0  0  0  0  0  0  0  0
    7.1428    1.3634    0.1169 H   0  0  0  0  0  0  0  0  0  0  0  0
    7.0035    1.6596    1.8511 H   0  0  0  0  0  0  0  0  0  0  0  0
   -3.5373    3.5401    0.7445 H   0  0  0  0  0  0  0  0  0  0  0  0
   -2.2207    4.6798    0.7314 H   0  0  0  0  0  0  0  0  0  0  0  0
   -1.8573   -3.6487    0.0471 H   0  0  0  0  0  0  0  0  0  0  0  0
   -5.8824   -0.7841    0.3427 H   0  0  0  0  0  0  0  0  0  0  0  0
   -4.0701   -4.6580    0.3309 H   0  0  0  0  0  0  0  0  0  0  0  0
   -6.0876   -3.2244    0.4813 H   0  0  0  0  0  0  0  0  0  0  0  0
   -3.6097    4.9676   -1.0273 H   0  0  0  0  0  0  0  0  0  0  0  0
  1 10  1  0  0  0  0
  1 18  1  0  0  0  0
  2 14  2  0  0  0  0
  3 21  1  0  0  0  0
  3 49  1  0  0  0  0
  4  6  1  0  0  0  0
  4 11  1  0  0  0  0
  4 12  1  0  0  0  0
  5  7  1  0  0  0  0
  5  8  1  0  0  0  0
  5 30  1  0  0  0  0
  6  7  1  0  0  0  0
  6 26  1  0  0  0  0
  6 27  1  0  0  0  0
  7 28  1  0  0  0  0
  7 29  1  0  0  0  0
  8  9  2  0  0  0  0
  8 15  1  0  0  0  0
  9 10  1  0  0  0  0
  9 14  1  0  0  0  0
 10 13  2  0  0  0  0
 11 19  1  0  0  0  0
 11 31  1  0  0  0  0
 11 32  1  0  0  0  0
 12 20  1  0  0  0  0
 12 33  1  0  0  0  0
 12 34  1  0  0  0  0
 13 17  1  0  0  0  0
 13 21  1  0  0  0  0
 14 16  1  0  0  0  0
 15 17  2  0  0  0  0
 15 35  1  0  0  0  0
 16 18  1  0  0  0  0
 16 22  2  0  0  0  0
 17 36  1  0  0  0  0
 18 23  2  0  0  0  0
 19 37  1  0  0  0  0
 19 38  1  0  0  0  0
 19 39  1  0  0  0  0
 20 40  1  0  0  0  0
 20 41  1  0  0  0  0
 20 42  1  0  0  0  0
 21 43  1  0  0  0  0
 21 44  1  0  0  0  0
 22 24  1  0  0  0  0
 22 45  1  0  0  0  0
 23 25  1  0  0  0  0
 23 46  1  0  0  0  0
 24 25  2  0  0  0  0
 24 47  1  0  0  0  0
 25 48  1  0  0  0  0
M  END
> <PUBCHEM_COMPOUND_CID>
3634

> <PUBCHEM_CONFORMER_RMSD>
0.8

> <PUBCHEM_CONFORMER_DIVERSEORDER>
1
12
11
21
22
20
19
13
15
4
7
9
6
16
3
14
10
8
18
2
17
5

> <PUBCHEM_MMFF94_PARTIAL_CHARGES>
31
1 -0.2
10 0.1
11 0.27
12 0.27
13 -0.14
14 0.4
15 -0.15
16 0.09
17 -0.15
18 0.1
2 -0.57
21 0.42
22 -0.15
23 -0.15
24 -0.15
25 -0.15
3 -0.68
30 0.4
35 0.15
36 0.15
4 -0.81
45 0.15
46 0.15
47 0.15
48 0.15
49 0.4
5 -0.87
6 0.27
7 0.37
8 0.1
9 0.09

> <PUBCHEM_EFFECTIVE_ROTOR_COUNT>
7

> <PUBCHEM_PHARMACOPHORE_FEATURES>
9
1 2 acceptor
1 3 acceptor
1 3 donor
1 4 cation
1 5 cation
1 5 donor
6 1 9 10 14 16 18 rings
6 16 18 22 23 24 25 rings
6 8 9 10 13 15 17 rings

> <PUBCHEM_HEAVY_ATOM_COUNT>
25

> <PUBCHEM_ATOM_DEF_STEREO_COUNT>
0

> <PUBCHEM_ATOM_UDEF_STEREO_COUNT>
0

> <PUBCHEM_BOND_DEF_STEREO_COUNT>
0

> <PUBCHEM_BOND_UDEF_STEREO_COUNT>
0

> <PUBCHEM_ISOTOPIC_ATOM_COUNT>
0

> <PUBCHEM_COMPONENT_COUNT>
1

> <PUBCHEM_CACTVS_TAUTO_COUNT>
4

> <PUBCHEM_CONFORMER_ID>
00000E3200000001

> <PUBCHEM_MMFF94_ENERGY>
83.6528

> <PUBCHEM_FEATURE_SELFOVERLAP>
45.697

> <PUBCHEM_SHAPE_FINGERPRINT>
10319926 262 18263943184282984754
10411042 1 18339078160489417555
1100329 8 18410288117230909601
11056379 131 18339920519007081956
12107183 9 18263911173844456219
12293681 160 17682414885228664281
12516196 113 18337673001634980746
12788726 201 18270666585452514182
13009979 54 18059278882348542613
13140716 1 18336260138126036785
138480 1 15817346511350232037
14790565 3 17616812571217431705
14866123 147 18337102471469970497
15042514 8 18410288116866451265
15131766 46 15432033162295585544
15230672 131 17764581411185180302
15250474 111 18128824221488599674
15927050 60 18048878795425282631
16087824 20 18340206402055705069
17492 89 18410009949521162206
17844677 252 18410287039262079232
19958102 18 18126009509795151310
21236236 1 18334859462758358337
21267235 1 18339916035114511715
21478907 32 18411416168472878841
22122407 14 15719391741432040449
2297311 6 18408876339689009502
23557571 272 18261385702534376388
23559900 14 18337400344041389209
255183 313 18192976318406684825
3004659 81 18131067083474880558
3103668 31 18272094929121236029
335352 9 18411138001306723703
3421961 26 18120372055828537657
3882209 13 16891488471721216454
4073 2 18336827602395748802
4409770 3 18270687575511915757
5104073 3 18260553368317140682
77188 2 18195244417436401101
7970288 3 18266177236316700575

> <PUBCHEM_SHAPE_MULTIPOLES>
496.64
14.12
4.8
0.85
25.7
2.6
-0.05
-9.79
1.61
-6.56
-0.62
0.88
-0.01
2.14

> <PUBCHEM_SHAPE_SELFOVERLAP>
1045.743

> <PUBCHEM_SHAPE_VOLUME>
280.4

> <PUBCHEM_COORDINATE_TYPE>
2
5
10

$$$$

