7746
  -OEChem-06261202173D

 17 16  0     1  0  0  0  0  0999 V2000
    1.4370   -1.7114   -0.1738 O   0  0  0  0  0  0  0  0  0  0  0  0
   -0.7339   -0.6766   -0.2045 C   0  0  0  0  0  0  0  0  0  0  0  0
   -1.6454    0.4205    0.3502 C   0  0  0  0  0  0  0  0  0  0  0  0
    0.6831   -0.6335    0.3782 C   0  0  2  0  0  0  0  0  0  0  0  0
   -3.0490    0.3199   -0.2270 C   0  0  0  0  0  0  0  0  0  0  0  0
    1.3733    0.6252    0.0648 C   0  0  0  0  0  0  0  0  0  0  0  0
    1.9349    1.6560   -0.1880 C   0  0  0  0  0  0  0  0  0  0  0  0
   -0.6857   -0.5991   -1.2992 H   0  0  0  0  0  0  0  0  0  0  0  0
   -1.1745   -1.6610    0.0012 H   0  0  0  0  0  0  0  0  0  0  0  0
   -1.6990    0.3407    1.4421 H   0  0  0  0  0  0  0  0  0  0  0  0
   -1.2441    1.4123    0.1153 H   0  0  0  0  0  0  0  0  0  0  0  0
    0.6482   -0.7755    1.4642 H   0  0  0  0  0  0  0  0  0  0  0  0
   -3.6852    1.1103    0.1835 H   0  0  0  0  0  0  0  0  0  0  0  0
   -3.0338    0.4272   -1.3164 H   0  0  0  0  0  0  0  0  0  0  0  0
   -3.5056   -0.6445    0.0174 H   0  0  0  0  0  0  0  0  0  0  0  0
    0.9880   -2.5388    0.0701 H   0  0  0  0  0  0  0  0  0  0  0  0
    2.4326    2.5703   -0.4123 H   0  0  0  0  0  0  0  0  0  0  0  0
  1  4  1  0  0  0  0
  1 16  1  0  0  0  0
  2  3  1  0  0  0  0
  2  4  1  0  0  0  0
  2  8  1  0  0  0  0
  2  9  1  0  0  0  0
  3  5  1  0  0  0  0
  3 10  1  0  0  0  0
  3 11  1  0  0  0  0
  4  6  1  0  0  0  0
  4 12  1  0  0  0  0
  5 13  1  0  0  0  0
  5 14  1  0  0  0  0
  5 15  1  0  0  0  0
  6  7  3  0  0  0  0
  7 17  1  0  0  0  0
M  END
> <PUBCHEM_COMPOUND_CID>
7746

> <PUBCHEM_CONFORMER_RMSD>
0.4

> <PUBCHEM_CONFORMER_DIVERSEORDER>
3
13
11
10
12
8
1
7
15
9
14
2
5
4
6

> <PUBCHEM_MMFF94_PARTIAL_CHARGES>
6
1 -0.68
16 0.4
17 0.18
4 0.48
6 -0.2
7 -0.18

> <PUBCHEM_EFFECTIVE_ROTOR_COUNT>
2

> <PUBCHEM_PHARMACOPHORE_FEATURES>
4
1 1 acceptor
1 1 donor
1 5 hydrophobe
1 7 hydrophobe

> <PUBCHEM_HEAVY_ATOM_COUNT>
7

> <PUBCHEM_ATOM_DEF_STEREO_COUNT>
0

> <PUBCHEM_ATOM_UDEF_STEREO_COUNT>
1

> <PUBCHEM_BOND_DEF_STEREO_COUNT>
0

> <PUBCHEM_BOND_UDEF_STEREO_COUNT>
0

> <PUBCHEM_ISOTOPIC_ATOM_COUNT>
0

> <PUBCHEM_COMPONENT_COUNT>
1

> <PUBCHEM_CACTVS_TAUTO_COUNT>
1

> <PUBCHEM_CONFORMER_ID>
00001E4200000003

> <PUBCHEM_MMFF94_ENERGY>
1.2897

> <PUBCHEM_FEATURE_SELFOVERLAP>
20.297

> <PUBCHEM_SHAPE_FINGERPRINT>
12932741 1 17845926416332325595
12932764 1 17489027175550148459
14390081 3 18409449142170898033
19973954 147 18341050838884087373
20096714 4 18410855412962740328
21040471 1 18194402186912362216
23552423 10 18335988657263865175
23552449 1 16824184010403436288
23552449 11 18129955592571210867
29004967 10 18196652010840865290

> <PUBCHEM_SHAPE_MULTIPOLES>
138.19
3.6
1.54
0.67
2.44
0.21
0.02
-1.32
-0.29
-1.11
-0.12
0.04
-0.01
-0.06

> <PUBCHEM_SHAPE_SELFOVERLAP>
246.932

> <PUBCHEM_SHAPE_VOLUME>
89.4

> <PUBCHEM_COORDINATE_TYPE>
2
5
10

$$$$

