582709
  -OEChem-06241222433D

 21 22  0     1  0  0  0  0  0999 V2000
    3.5088    1.7970    0.0577 O   0  0  0  0  0  0  0  0  0  0  0  0
    2.9323   -0.4881    0.0863 N   0  0  0  0  0  0  0  0  0  0  0  0
    0.5168   -0.7600   -0.6057 C   0  0  1  0  0  0  0  0  0  0  0  0
    1.5549   -0.7663    0.4732 C   0  0  1  0  0  0  0  0  0  0  0  0
    0.9478   -2.0567    0.0061 C   0  0  0  0  0  0  0  0  0  0  0  0
   -0.8416   -0.2284   -0.3019 C   0  0  0  0  0  0  0  0  0  0  0  0
   -1.0656    1.1484   -0.2913 C   0  0  0  0  0  0  0  0  0  0  0  0
   -1.8889   -1.1074   -0.0258 C   0  0  0  0  0  0  0  0  0  0  0  0
   -2.3367    1.6462   -0.0044 C   0  0  0  0  0  0  0  0  0  0  0  0
   -3.1601   -0.6096    0.2609 C   0  0  0  0  0  0  0  0  0  0  0  0
   -3.3838    0.7672    0.2716 C   0  0  0  0  0  0  0  0  0  0  0  0
    3.2161    0.6578    0.0735 C   0  0  0  0  0  0  0  0  0  0  0  0
    0.8660   -0.5915   -1.6227 H   0  0  0  0  0  0  0  0  0  0  0  0
    1.2741   -0.4473    1.4737 H   0  0  0  0  0  0  0  0  0  0  0  0
    0.3334   -2.5815    0.7272 H   0  0  0  0  0  0  0  0  0  0  0  0
    1.5537   -2.7202   -0.6015 H   0  0  0  0  0  0  0  0  0  0  0  0
   -0.2564    1.8419   -0.5048 H   0  0  0  0  0  0  0  0  0  0  0  0
   -1.7522   -2.1845   -0.0479 H   0  0  0  0  0  0  0  0  0  0  0  0
   -2.5111    2.7181    0.0037 H   0  0  0  0  0  0  0  0  0  0  0  0
   -3.9770   -1.2938    0.4710 H   0  0  0  0  0  0  0  0  0  0  0  0
   -4.3738    1.1546    0.4936 H   0  0  0  0  0  0  0  0  0  0  0  0
  1 12  2  0  0  0  0
  2  4  1  0  0  0  0
  2 12  2  0  0  0  0
  3  4  1  0  0  0  0
  3  5  1  0  0  0  0
  3  6  1  0  0  0  0
  3 13  1  0  0  0  0
  4  5  1  0  0  0  0
  4 14  1  0  0  0  0
  5 15  1  0  0  0  0
  5 16  1  0  0  0  0
  6  7  2  0  0  0  0
  6  8  1  0  0  0  0
  7  9  1  0  0  0  0
  7 17  1  0  0  0  0
  8 10  2  0  0  0  0
  8 18  1  0  0  0  0
  9 11  2  0  0  0  0
  9 19  1  0  0  0  0
 10 11  1  0  0  0  0
 10 20  1  0  0  0  0
 11 21  1  0  0  0  0
M  END
> <PUBCHEM_COMPOUND_CID>
582709

> <PUBCHEM_CONFORMER_RMSD>
0.6

> <PUBCHEM_CONFORMER_DIVERSEORDER>
1
20
11
19
21
18
15
10
4
7
6
14
17
2
12
22
9
5
8
3
13
16

> <PUBCHEM_MMFF94_PARTIAL_CHARGES>
21
1 -0.49
10 -0.15
11 -0.15
12 0.79
13 0.1
14 0.1
15 0.1
16 0.1
17 0.15
18 0.15
19 0.15
2 -0.51
20 0.15
21 0.15
3 -0.07
4 0.11
5 -0.2
6 -0.03
7 -0.15
8 -0.15
9 -0.15

> <PUBCHEM_EFFECTIVE_ROTOR_COUNT>
2.6

> <PUBCHEM_PHARMACOPHORE_FEATURES>
2
1 2 acceptor
6 6 7 8 9 10 11 rings

> <PUBCHEM_HEAVY_ATOM_COUNT>
12

> <PUBCHEM_ATOM_DEF_STEREO_COUNT>
0

> <PUBCHEM_ATOM_UDEF_STEREO_COUNT>
2

> <PUBCHEM_BOND_DEF_STEREO_COUNT>
0

> <PUBCHEM_BOND_UDEF_STEREO_COUNT>
0

> <PUBCHEM_ISOTOPIC_ATOM_COUNT>
0

> <PUBCHEM_COMPONENT_COUNT>
1

> <PUBCHEM_CACTVS_TAUTO_COUNT>
1

> <PUBCHEM_CONFORMER_ID>
0008E43500000001

> <PUBCHEM_MMFF94_ENERGY>
26.2265

> <PUBCHEM_FEATURE_SELFOVERLAP>
10.148

> <PUBCHEM_SHAPE_FINGERPRINT>
10608611 8 18339644567432400949
11031198 65 16877943879460270406
11132069 177 18412268315469281520
12251169 10 18271535311286787490
12346645 44 18410857642230089050
12696612 119 18201714067954313948
12932764 1 17631451348479951847
13897977 13 18411696556669999737
14325111 11 18410293609929032854
14350558 41 9727630626827030250
14445660 50 18261664961376566561
14648413 74 18048313641473299255
15775835 57 18335699412606796544
16945 1 17978795932417695711
170605 34 18410855481914436058
18186145 218 18040705974934596362
19973954 147 18120373408732686121
20528008 55 18341618143939205853
20871998 184 18261106336434671975
21028194 46 18409728465442541090
21501502 16 18336272348301158811
21524375 3 18336551534287108498
2748010 2 18197772417816689911
369184 2 18200594838458631835
449060 62 18335419092759939249
7364860 26 18192429890638374342

> <PUBCHEM_SHAPE_MULTIPOLES>
236.1
5.95
1.87
0.68
1.71
0.1
-0.01
2.29
0.71
0.45
0
-0.04
-0.04
0.03

> <PUBCHEM_SHAPE_SELFOVERLAP>
498.341

> <PUBCHEM_SHAPE_VOLUME>
131.6

> <PUBCHEM_COORDINATE_TYPE>
2
5
10

$$$$

