17395472
  -OEChem-06241222502D

 46 49  0     1  0  0  0  0  0999 V2000
    2.1953   -2.4527    0.0000 O   0  0  0  0  0  0  0  0  0  0  0  0
    3.0000    1.1309    0.0000 O   0  0  0  0  0  0  0  0  0  0  0  0
    4.7320    5.1309    0.0000 O   0  0  0  0  0  0  0  0  0  0  0  0
    3.8660   -0.3691    0.0000 N   0  0  0  0  0  0  0  0  0  0  0  0
    3.8660    3.6309    0.0000 N   0  0  0  0  0  0  0  0  0  0  0  0
    3.8660    2.6309    0.0000 N   0  0  0  0  0  0  0  0  0  0  0  0
    3.0000   -0.8691    0.0000 C   0  0  3  0  0  0  0  0  0  0  0  0
    3.0000   -1.8691    0.0000 C   0  0  0  0  0  0  0  0  0  0  0  0
    4.7320    1.1309    0.0000 C   0  0  0  0  0  0  0  0  0  0  0  0
    4.7320    2.1309    0.0000 C   0  0  0  0  0  0  0  0  0  0  0  0
    5.5981    2.6309    0.0000 C   0  0  0  0  0  0  0  0  0  0  0  0
    3.8047   -2.4527    0.0000 C   0  0  0  0  0  0  0  0  0  0  0  0
    3.5000   -3.3989    0.0000 C   0  0  0  0  0  0  0  0  0  0  0  0
    2.1340   -0.3691    0.0000 C   0  0  0  0  0  0  0  0  0  0  0  0
    3.8660    0.6309    0.0000 C   0  0  0  0  0  0  0  0  0  0  0  0
    2.5000   -3.3989    0.0000 C   0  0  0  0  0  0  0  0  0  0  0  0
    5.5981    3.6309    0.0000 C   0  0  0  0  0  0  0  0  0  0  0  0
    4.7320    4.1309    0.0000 C   0  0  0  0  0  0  0  0  0  0  0  0
    6.4920    2.0963    0.0000 C   0  0  0  0  0  0  0  0  0  0  0  0
    4.0000   -4.2649    0.0000 C   0  0  0  0  0  0  0  0  0  0  0  0
    6.4920    4.1656    0.0000 C   0  0  0  0  0  0  0  0  0  0  0  0
    2.0000   -4.2649    0.0000 C   0  0  0  0  0  0  0  0  0  0  0  0
    7.3981    2.6101    0.0000 C   0  0  0  0  0  0  0  0  0  0  0  0
    7.3981    3.6518    0.0000 C   0  0  0  0  0  0  0  0  0  0  0  0
    3.5000   -5.1309    0.0000 C   0  0  0  0  0  0  0  0  0  0  0  0
    2.5000   -5.1309    0.0000 C   0  0  0  0  0  0  0  0  0  0  0  0
    3.0000    4.1309    0.0000 C   0  0  0  0  0  0  0  0  0  0  0  0
    3.0000   -0.2491    0.0000 H   0  0  0  0  0  0  0  0  0  0  0  0
    4.9441    0.5483    0.0000 H   0  0  0  0  0  0  0  0  0  0  0  0
    5.3426    1.2386    0.0000 H   0  0  0  0  0  0  0  0  0  0  0  0
    4.4030   -0.6791    0.0000 H   0  0  0  0  0  0  0  0  0  0  0  0
    4.3940   -2.2601    0.0000 H   0  0  0  0  0  0  0  0  0  0  0  0
    2.4440    0.1679    0.0000 H   0  0  0  0  0  0  0  0  0  0  0  0
    1.5970   -0.0591    0.0000 H   0  0  0  0  0  0  0  0  0  0  0  0
    1.8240   -0.9060    0.0000 H   0  0  0  0  0  0  0  0  0  0  0  0
    6.4848    1.4763    0.0000 H   0  0  0  0  0  0  0  0  0  0  0  0
    4.6200   -4.2649    0.0000 H   0  0  0  0  0  0  0  0  0  0  0  0
    6.4848    4.7856    0.0000 H   0  0  0  0  0  0  0  0  0  0  0  0
    1.3800   -4.2649    0.0000 H   0  0  0  0  0  0  0  0  0  0  0  0
    7.9338    2.2981    0.0000 H   0  0  0  0  0  0  0  0  0  0  0  0
    7.9338    3.9638    0.0000 H   0  0  0  0  0  0  0  0  0  0  0  0
    3.8100   -5.6679    0.0000 H   0  0  0  0  0  0  0  0  0  0  0  0
    2.1900   -5.6679    0.0000 H   0  0  0  0  0  0  0  0  0  0  0  0
    3.3100    4.6679    0.0000 H   0  0  0  0  0  0  0  0  0  0  0  0
    2.4631    4.4409    0.0000 H   0  0  0  0  0  0  0  0  0  0  0  0
    2.6900    3.5940    0.0000 H   0  0  0  0  0  0  0  0  0  0  0  0
  1  8  1  0  0  0  0
  1 16  1  0  0  0  0
  2 15  2  0  0  0  0
  3 18  2  0  0  0  0
  4  7  1  0  0  0  0
  4 15  1  0  0  0  0
  4 31  1  0  0  0  0
  5  6  1  0  0  0  0
  5 18  1  0  0  0  0
  5 27  1  0  0  0  0
  6 10  2  0  0  0  0
  7  8  1  0  0  0  0
  7 14  1  0  0  0  0
  7 28  1  0  0  0  0
  8 12  2  0  0  0  0
  9 10  1  0  0  0  0
  9 15  1  0  0  0  0
  9 29  1  0  0  0  0
  9 30  1  0  0  0  0
 10 11  1  0  0  0  0
 11 17  1  0  0  0  0
 11 19  2  0  0  0  0
 12 13  1  0  0  0  0
 12 32  1  0  0  0  0
 13 16  1  0  0  0  0
 13 20  2  0  0  0  0
 14 33  1  0  0  0  0
 14 34  1  0  0  0  0
 14 35  1  0  0  0  0
 16 22  2  0  0  0  0
 17 18  1  0  0  0  0
 17 21  2  0  0  0  0
 19 23  1  0  0  0  0
 19 36  1  0  0  0  0
 20 25  1  0  0  0  0
 20 37  1  0  0  0  0
 21 24  1  0  0  0  0
 21 38  1  0  0  0  0
 22 26  1  0  0  0  0
 22 39  1  0  0  0  0
 23 24  2  0  0  0  0
 23 40  1  0  0  0  0
 24 41  1  0  0  0  0
 25 26  2  0  0  0  0
 25 42  1  0  0  0  0
 26 43  1  0  0  0  0
 27 44  1  0  0  0  0
 27 45  1  0  0  0  0
 27 46  1  0  0  0  0
M  END
> <PUBCHEM_COMPOUND_CID>
17395472

> <PUBCHEM_COMPOUND_CANONICALIZED>
1

> <PUBCHEM_CACTVS_COMPLEXITY>
620

> <PUBCHEM_CACTVS_HBOND_ACCEPTOR>
4

> <PUBCHEM_CACTVS_HBOND_DONOR>
1

> <PUBCHEM_CACTVS_ROTATABLE_BOND>
4

> <PUBCHEM_CACTVS_SUBSKEYS>
AAADceB7MAAAAAAAAAAAAAAAAAAAASAAAAAwYIAAAAAAAEiB9AAAHgAYAAAADCzBmAQyBsLABECoA6FyEACSCAAkIAAaiIG+DNgOJrKEtTuHOSjk3hGYqYeY2aOegAAAAAAYAAAAAAAAADAAAAAAAAAAAA==

> <PUBCHEM_IUPAC_OPENEYE_NAME>
N-[1-(benzofuran-2-yl)ethyl]-2-(3-methyl-4-oxo-phthalazin-1-yl)acetamide

> <PUBCHEM_IUPAC_CAS_NAME>
N-[1-(2-benzofuranyl)ethyl]-2-(3-methyl-4-oxo-1-phthalazinyl)acetamide

> <PUBCHEM_IUPAC_NAME>
N-[1-(1-benzofuran-2-yl)ethyl]-2-(3-methyl-4-oxophthalazin-1-yl)acetamide

> <PUBCHEM_IUPAC_SYSTEMATIC_NAME>
N-[1-(1-benzofuran-2-yl)ethyl]-2-(3-methyl-4-oxidanylidene-phthalazin-1-yl)ethanamide

> <PUBCHEM_IUPAC_TRADITIONAL_NAME>
N-[1-(benzofuran-2-yl)ethyl]-2-(4-keto-3-methyl-phthalazin-1-yl)acetamide

> <PUBCHEM_IUPAC_INCHI>
InChI=1S/C21H19N3O3/c1-13(19-11-14-7-3-6-10-18(14)27-19)22-20(25)12-17-15-8-4-5-9-16(15)21(26)24(2)23-17/h3-11,13H,12H2,1-2H3,(H,22,25)

> <PUBCHEM_IUPAC_INCHIKEY>
RVIGNYCSPHLBBI-UHFFFAOYSA-N

> <PUBCHEM_XLOGP3_AA>
3

> <PUBCHEM_EXACT_MASS>
361.142641

> <PUBCHEM_MOLECULAR_FORMULA>
C21H19N3O3

> <PUBCHEM_MOLECULAR_WEIGHT>
361.39386

> <PUBCHEM_OPENEYE_CAN_SMILES>
CC(C1=CC2=CC=CC=C2O1)NC(=O)CC3=NN(C(=O)C4=CC=CC=C43)C

> <PUBCHEM_OPENEYE_ISO_SMILES>
CC(C1=CC2=CC=CC=C2O1)NC(=O)CC3=NN(C(=O)C4=CC=CC=C43)C

> <PUBCHEM_CACTVS_TPSA>
74.9

> <PUBCHEM_MONOISOTOPIC_WEIGHT>
361.142641

> <PUBCHEM_TOTAL_CHARGE>
0

> <PUBCHEM_HEAVY_ATOM_COUNT>
27

> <PUBCHEM_ATOM_DEF_STEREO_COUNT>
0

> <PUBCHEM_ATOM_UDEF_STEREO_COUNT>
1

> <PUBCHEM_BOND_DEF_STEREO_COUNT>
0

> <PUBCHEM_BOND_UDEF_STEREO_COUNT>
0

> <PUBCHEM_ISOTOPIC_ATOM_COUNT>
0

> <PUBCHEM_COMPONENT_COUNT>
1

> <PUBCHEM_CACTVS_TAUTO_COUNT>
2

> <PUBCHEM_COORDINATE_TYPE>
1
5
255

> <PUBCHEM_BONDANNOTATIONS>
1  16  8
1  8  8
10  11  8
11  17  8
11  19  8
12  13  8
13  16  8
13  20  8
16  22  8
17  18  8
17  21  8
19  23  8
20  25  8
21  24  8
22  26  8
23  24  8
25  26  8
5  18  8
5  6  8
6  10  8
7  14  3
8  12  8

$$$$

