17396027
  -OEChem-06241222532D

 51 54  0     0  0  0  0  0  0999 V2000
    6.0932    6.8319    0.0000 S   0  0  0  0  0  0  0  0  0  0  0  0
   10.3463    0.1953    0.0000 S   0  0  0  0  0  0  0  0  0  0  0  0
    0.5369    5.2395    0.0000 O   0  0  0  0  0  0  0  0  0  0  0  0
    3.1350    4.7395    0.0000 O   0  0  0  0  0  0  0  0  0  0  0  0
    1.4030    3.7395    0.0000 O   0  0  0  0  0  0  0  0  0  0  0  0
    2.2690    6.2395    0.0000 O   0  0  0  0  0  0  0  0  0  0  0  0
    8.5341    5.0000    0.0000 N   0  0  0  0  0  0  0  0  0  0  0  0
    8.5341    3.0000    0.0000 N   0  0  0  0  0  0  0  0  0  0  0  0
    7.6681    1.5000    0.0000 N   0  0  0  0  0  0  0  0  0  0  0  0
    8.5341    0.0000    0.0000 N   0  0  0  0  0  0  0  0  0  0  0  0
    7.6681    4.5000    0.0000 C   0  0  0  0  0  0  0  0  0  0  0  0
    9.4001    4.5000    0.0000 C   0  0  0  0  0  0  0  0  0  0  0  0
    9.4001    3.5000    0.0000 C   0  0  0  0  0  0  0  0  0  0  0  0
    7.6681    3.5000    0.0000 C   0  0  0  0  0  0  0  0  0  0  0  0
    8.5341    6.0000    0.0000 C   0  0  0  0  0  0  0  0  0  0  0  0
    8.5341    2.0000    0.0000 C   0  0  0  0  0  0  0  0  0  0  0  0
    7.6681    6.5000    0.0000 C   0  0  0  0  0  0  0  0  0  0  0  0
    7.5650    7.4887    0.0000 C   0  0  0  0  0  0  0  0  0  0  0  0
    9.4001    1.5000    0.0000 C   0  0  0  0  0  0  0  0  0  0  0  0
    6.7603    6.0949    0.0000 C   0  0  0  0  0  0  0  0  0  0  0  0
    6.5865    7.6949    0.0000 C   0  0  0  0  0  0  0  0  0  0  0  0
    9.4001    0.5000    0.0000 C   0  0  0  0  0  0  0  0  0  0  0  0
    8.2328    8.2330    0.0000 C   0  0  0  0  0  0  0  0  0  0  0  0
   10.3463    1.8047    0.0000 C   0  0  0  0  0  0  0  0  0  0  0  0
    6.2758    8.6455    0.0000 C   0  0  0  0  0  0  0  0  0  0  0  0
    7.6681    0.5000    0.0000 C   0  0  0  0  0  0  0  0  0  0  0  0
    7.9222    9.1836    0.0000 C   0  0  0  0  0  0  0  0  0  0  0  0
   10.9299    1.0000    0.0000 C   0  0  0  0  0  0  0  0  0  0  0  0
    6.9437    9.3898    0.0000 C   0  0  0  0  0  0  0  0  0  0  0  0
    1.4030    4.7395    0.0000 C   0  0  0  0  0  0  0  0  0  0  0  0
    2.2690    5.2395    0.0000 C   0  0  0  0  0  0  0  0  0  0  0  0
    7.4560    5.0826    0.0000 H   0  0  0  0  0  0  0  0  0  0  0  0
    7.0575    4.3923    0.0000 H   0  0  0  0  0  0  0  0  0  0  0  0
   10.0107    4.3923    0.0000 H   0  0  0  0  0  0  0  0  0  0  0  0
    9.6122    5.0826    0.0000 H   0  0  0  0  0  0  0  0  0  0  0  0
    7.0575    3.6077    0.0000 H   0  0  0  0  0  0  0  0  0  0  0  0
    7.4560    2.9174    0.0000 H   0  0  0  0  0  0  0  0  0  0  0  0
    9.6122    2.9174    0.0000 H   0  0  0  0  0  0  0  0  0  0  0  0
   10.0107    3.6077    0.0000 H   0  0  0  0  0  0  0  0  0  0  0  0
    9.1447    5.8923    0.0000 H   0  0  0  0  0  0  0  0  0  0  0  0
    8.7461    6.5826    0.0000 H   0  0  0  0  0  0  0  0  0  0  0  0
    6.6324    5.4882    0.0000 H   0  0  0  0  0  0  0  0  0  0  0  0
    8.8395    8.1052    0.0000 H   0  0  0  0  0  0  0  0  0  0  0  0
   10.5389    2.3940    0.0000 H   0  0  0  0  0  0  0  0  0  0  0  0
    5.6692    8.7733    0.0000 H   0  0  0  0  0  0  0  0  0  0  0  0
    7.1311    0.1900    0.0000 H   0  0  0  0  0  0  0  0  0  0  0  0
    8.3362    9.6450    0.0000 H   0  0  0  0  0  0  0  0  0  0  0  0
   11.5499    1.0000    0.0000 H   0  0  0  0  0  0  0  0  0  0  0  0
    6.7511    9.9791    0.0000 H   0  0  0  0  0  0  0  0  0  0  0  0
    0.0000    4.9295    0.0000 H   0  0  0  0  0  0  0  0  0  0  0  0
    3.6720    5.0495    0.0000 H   0  0  0  0  0  0  0  0  0  0  0  0
  1 20  1  0  0  0  0
  1 21  1  0  0  0  0
  2 22  1  0  0  0  0
  2 28  1  0  0  0  0
  3 30  1  0  0  0  0
  3 50  1  0  0  0  0
  4 31  1  0  0  0  0
  4 51  1  0  0  0  0
  5 30  2  0  0  0  0
  6 31  2  0  0  0  0
  7 11  1  0  0  0  0
  7 12  1  0  0  0  0
  7 15  1  0  0  0  0
  8 13  1  0  0  0  0
  8 14  1  0  0  0  0
  8 16  1  0  0  0  0
  9 16  1  0  0  0  0
  9 26  2  0  0  0  0
 10 22  2  0  0  0  0
 10 26  1  0  0  0  0
 11 14  1  0  0  0  0
 11 32  1  0  0  0  0
 11 33  1  0  0  0  0
 12 13  1  0  0  0  0
 12 34  1  0  0  0  0
 12 35  1  0  0  0  0
 13 38  1  0  0  0  0
 13 39  1  0  0  0  0
 14 36  1  0  0  0  0
 14 37  1  0  0  0  0
 15 17  1  0  0  0  0
 15 40  1  0  0  0  0
 15 41  1  0  0  0  0
 16 19  2  0  0  0  0
 17 18  1  0  0  0  0
 17 20  2  0  0  0  0
 18 21  1  0  0  0  0
 18 23  2  0  0  0  0
 19 22  1  0  0  0  0
 19 24  1  0  0  0  0
 20 42  1  0  0  0  0
 21 25  2  0  0  0  0
 23 27  1  0  0  0  0
 23 43  1  0  0  0  0
 24 28  2  0  0  0  0
 24 44  1  0  0  0  0
 25 29  1  0  0  0  0
 25 45  1  0  0  0  0
 26 46  1  0  0  0  0
 27 29  2  0  0  0  0
 27 47  1  0  0  0  0
 28 48  1  0  0  0  0
 29 49  1  0  0  0  0
 30 31  1  0  0  0  0
M  END
> <PUBCHEM_COMPOUND_CID>
17396027

> <PUBCHEM_COMPOUND_CANONICALIZED>
1

> <PUBCHEM_CACTVS_COMPLEXITY>
528

> <PUBCHEM_CACTVS_HBOND_ACCEPTOR>
10

> <PUBCHEM_CACTVS_HBOND_DONOR>
2

> <PUBCHEM_CACTVS_ROTATABLE_BOND>
4

> <PUBCHEM_CACTVS_SUBSKEYS>
AAADceB7uABgAAAAAAAAAAAAAAAAASJAAAA8WIAAAAAAAFgB/gAAHgQACAAADADF2gS1udcIEgisAiLzbAKD0KlxCLhJ2DhoRJiJaKLg2dGUJAxogALpyCcQgMAOgAAAAAAEAAAAAAAAAAgAAAAAAAAAAA==

> <PUBCHEM_IUPAC_OPENEYE_NAME>
4-[4-(benzothiophen-3-ylmethyl)piperazin-1-yl]thieno[2,3-d]pyrimidine; oxalic acid

> <PUBCHEM_IUPAC_CAS_NAME>
4-[4-(1-benzothiophen-3-ylmethyl)-1-piperazinyl]thieno[2,3-d]pyrimidine; oxalic acid

> <PUBCHEM_IUPAC_NAME>
4-[4-(1-benzothiophen-3-ylmethyl)piperazin-1-yl]thieno[2,3-d]pyrimidine; oxalic acid

> <PUBCHEM_IUPAC_SYSTEMATIC_NAME>
4-[4-(1-benzothiophen-3-ylmethyl)piperazin-1-yl]thieno[2,3-d]pyrimidine; ethanedioic acid

> <PUBCHEM_IUPAC_TRADITIONAL_NAME>
4-[4-(benzothiophen-3-ylmethyl)piperazino]thieno[2,3-d]pyrimidine; oxalic acid

> <PUBCHEM_IUPAC_INCHI>
InChI=1S/C19H18N4S2.C2H2O4/c1-2-4-17-15(3-1)14(12-25-17)11-22-6-8-23(9-7-22)18-16-5-10-24-19(16)21-13-20-18;3-1(4)2(5)6/h1-5,10,12-13H,6-9,11H2;(H,3,4)(H,5,6)

> <PUBCHEM_IUPAC_INCHIKEY>
JQTFSAZFAPPSEN-UHFFFAOYSA-N

> <PUBCHEM_EXACT_MASS>
456.092597

> <PUBCHEM_MOLECULAR_FORMULA>
C21H20N4O4S2

> <PUBCHEM_MOLECULAR_WEIGHT>
456.5379

> <PUBCHEM_OPENEYE_CAN_SMILES>
C1CN(CCN1CC2=CSC3=CC=CC=C32)C4=C5C=CSC5=NC=N4.C(=O)(C(=O)O)O

> <PUBCHEM_OPENEYE_ISO_SMILES>
C1CN(CCN1CC2=CSC3=CC=CC=C32)C4=C5C=CSC5=NC=N4.C(=O)(C(=O)O)O

> <PUBCHEM_CACTVS_TPSA>
163

> <PUBCHEM_MONOISOTOPIC_WEIGHT>
456.092597

> <PUBCHEM_TOTAL_CHARGE>
0

> <PUBCHEM_HEAVY_ATOM_COUNT>
31

> <PUBCHEM_ATOM_DEF_STEREO_COUNT>
0

> <PUBCHEM_ATOM_UDEF_STEREO_COUNT>
0

> <PUBCHEM_BOND_DEF_STEREO_COUNT>
0

> <PUBCHEM_BOND_UDEF_STEREO_COUNT>
0

> <PUBCHEM_ISOTOPIC_ATOM_COUNT>
0

> <PUBCHEM_COMPONENT_COUNT>
2

> <PUBCHEM_CACTVS_TAUTO_COUNT>
1

> <PUBCHEM_COORDINATE_TYPE>
1
5
255

> <PUBCHEM_BONDANNOTATIONS>
1  20  8
1  21  8
10  22  8
10  26  8
16  19  8
17  18  8
17  20  8
18  21  8
18  23  8
19  22  8
19  24  8
2  22  8
2  28  8
21  25  8
23  27  8
24  28  8
25  29  8
27  29  8
9  16  8
9  26  8

$$$$

