17396622
  -OEChem-06241222572D

 45 47  0     1  0  0  0  0  0999 V2000
    7.9128    0.0839    0.0000 O   0  0  0  0  0  0  0  0  0  0  0  0
   14.0410    1.6080    0.0000 O   0  0  0  0  0  0  0  0  0  0  0  0
    2.6691   -0.0094    0.0000 O   0  0  0  0  0  0  0  0  0  0  0  0
    6.1808    1.0839    0.0000 O   0  0  0  0  0  0  0  0  0  0  0  0
    8.7788   -1.4161    0.0000 O   0  0  0  0  0  0  0  0  0  0  0  0
    5.3147   -0.4161    0.0000 N   0  0  0  0  0  0  0  0  0  0  0  0
   11.3769    0.0839    0.0000 C   0  0  0  0  0  0  0  0  0  0  0  0
   11.3769    1.0839    0.0000 C   0  0  0  0  0  0  0  0  0  0  0  0
    7.0468   -0.4161    0.0000 C   0  0  3  0  0  0  0  0  0  0  0  0
    9.6448    0.0839    0.0000 C   0  0  0  0  0  0  0  0  0  0  0  0
   10.5109   -0.4161    0.0000 C   0  0  0  0  0  0  0  0  0  0  0  0
   10.5109    1.5839    0.0000 C   0  0  0  0  0  0  0  0  0  0  0  0
    9.6448    1.0839    0.0000 C   0  0  0  0  0  0  0  0  0  0  0  0
   12.2708    1.6186    0.0000 C   0  0  0  0  0  0  0  0  0  0  0  0
   12.2708   -0.4508    0.0000 C   0  0  0  0  0  0  0  0  0  0  0  0
    6.1808    0.0839    0.0000 C   0  0  0  0  0  0  0  0  0  0  0  0
    8.7788   -0.4161    0.0000 C   0  0  0  0  0  0  0  0  0  0  0  0
    4.4487    0.0839    0.0000 C   0  0  0  0  0  0  0  0  0  0  0  0
   13.1769    1.1047    0.0000 C   0  0  0  0  0  0  0  0  0  0  0  0
    7.0468   -1.4161    0.0000 C   0  0  0  0  0  0  0  0  0  0  0  0
   13.1769    0.0631    0.0000 C   0  0  0  0  0  0  0  0  0  0  0  0
    3.5827   -0.4161    0.0000 C   0  0  0  0  0  0  0  0  0  0  0  0
    3.4782   -1.4106    0.0000 C   0  0  0  0  0  0  0  0  0  0  0  0
    2.5000   -1.6186    0.0000 C   0  0  0  0  0  0  0  0  0  0  0  0
    2.0000   -0.7525    0.0000 C   0  0  0  0  0  0  0  0  0  0  0  0
   14.9090    1.1114    0.0000 C   0  0  0  0  0  0  0  0  0  0  0  0
    7.0468    0.2039    0.0000 H   0  0  0  0  0  0  0  0  0  0  0  0
   10.5109   -1.0361    0.0000 H   0  0  0  0  0  0  0  0  0  0  0  0
   10.5109    2.2039    0.0000 H   0  0  0  0  0  0  0  0  0  0  0  0
    9.1079    1.3939    0.0000 H   0  0  0  0  0  0  0  0  0  0  0  0
   12.2637    2.2385    0.0000 H   0  0  0  0  0  0  0  0  0  0  0  0
   12.2637   -1.0707    0.0000 H   0  0  0  0  0  0  0  0  0  0  0  0
    4.8472    0.5588    0.0000 H   0  0  0  0  0  0  0  0  0  0  0  0
    4.0502    0.5588    0.0000 H   0  0  0  0  0  0  0  0  0  0  0  0
    6.4268   -1.4161    0.0000 H   0  0  0  0  0  0  0  0  0  0  0  0
    7.0468   -2.0361    0.0000 H   0  0  0  0  0  0  0  0  0  0  0  0
    7.6668   -1.4161    0.0000 H   0  0  0  0  0  0  0  0  0  0  0  0
    5.3147   -1.0361    0.0000 H   0  0  0  0  0  0  0  0  0  0  0  0
   13.7127   -0.2490    0.0000 H   0  0  0  0  0  0  0  0  0  0  0  0
    3.9389   -1.8255    0.0000 H   0  0  0  0  0  0  0  0  0  0  0  0
    2.2478   -2.1850    0.0000 H   0  0  0  0  0  0  0  0  0  0  0  0
    1.3834   -0.6877    0.0000 H   0  0  0  0  0  0  0  0  0  0  0  0
   14.6010    0.5733    0.0000 H   0  0  0  0  0  0  0  0  0  0  0  0
   15.4471    0.8034    0.0000 H   0  0  0  0  0  0  0  0  0  0  0  0
   15.2169    1.6495    0.0000 H   0  0  0  0  0  0  0  0  0  0  0  0
  1  9  1  0  0  0  0
  1 17  1  0  0  0  0
  2 19  1  0  0  0  0
  2 26  1  0  0  0  0
  3 22  1  0  0  0  0
  3 25  1  0  0  0  0
  4 16  2  0  0  0  0
  5 17  2  0  0  0  0
  6 16  1  0  0  0  0
  6 18  1  0  0  0  0
  6 38  1  0  0  0  0
  7  8  2  0  0  0  0
  7 11  1  0  0  0  0
  7 15  1  0  0  0  0
  8 12  1  0  0  0  0
  8 14  1  0  0  0  0
  9 16  1  0  0  0  0
  9 20  1  0  0  0  0
  9 27  1  0  0  0  0
 10 11  2  0  0  0  0
 10 13  1  0  0  0  0
 10 17  1  0  0  0  0
 11 28  1  0  0  0  0
 12 13  2  0  0  0  0
 12 29  1  0  0  0  0
 13 30  1  0  0  0  0
 14 19  2  0  0  0  0
 14 31  1  0  0  0  0
 15 21  2  0  0  0  0
 15 32  1  0  0  0  0
 18 22  1  0  0  0  0
 18 33  1  0  0  0  0
 18 34  1  0  0  0  0
 19 21  1  0  0  0  0
 20 35  1  0  0  0  0
 20 36  1  0  0  0  0
 20 37  1  0  0  0  0
 21 39  1  0  0  0  0
 22 23  2  0  0  0  0
 23 24  1  0  0  0  0
 23 40  1  0  0  0  0
 24 25  2  0  0  0  0
 24 41  1  0  0  0  0
 25 42  1  0  0  0  0
 26 43  1  0  0  0  0
 26 44  1  0  0  0  0
 26 45  1  0  0  0  0
M  END
> <PUBCHEM_COMPOUND_CID>
17396622

> <PUBCHEM_COMPOUND_CANONICALIZED>
1

> <PUBCHEM_CACTVS_COMPLEXITY>
497

> <PUBCHEM_CACTVS_HBOND_ACCEPTOR>
5

> <PUBCHEM_CACTVS_HBOND_DONOR>
1

> <PUBCHEM_CACTVS_ROTATABLE_BOND>
7

> <PUBCHEM_CACTVS_SUBSKEYS>
AAADceB6OAAAAAAAAAAAAAAAAAAAASAAAAAwYAAAAAAAAADB1AAAHgAQAAAADBThmAYyDsLABECIAqnSmAKCCAAkIAAIiIHODMgOJjKEtT+HOSjk1hGYqYeY2fKO4AADAAAQAADAAAYAACAAAAAAAAAAAA==

> <PUBCHEM_IUPAC_OPENEYE_NAME>
[2-(2-furylmethylamino)-1-methyl-2-oxo-ethyl] 6-methoxynaphthalene-2-carboxylate

> <PUBCHEM_IUPAC_CAS_NAME>
6-methoxy-2-naphthalenecarboxylic acid [1-(2-furanylmethylamino)-1-oxopropan-2-yl] ester

> <PUBCHEM_IUPAC_NAME>
[1-(furan-2-ylmethylamino)-1-oxopropan-2-yl] 6-methoxynaphthalene-2-carboxylate

> <PUBCHEM_IUPAC_SYSTEMATIC_NAME>
[1-(furan-2-ylmethylamino)-1-oxidanylidene-propan-2-yl] 6-methoxynaphthalene-2-carboxylate

> <PUBCHEM_IUPAC_TRADITIONAL_NAME>
6-methoxynaphthalene-2-carboxylic acid [2-(2-furfurylamino)-2-keto-1-methyl-ethyl] ester

> <PUBCHEM_IUPAC_INCHI>
InChI=1S/C20H19NO5/c1-13(19(22)21-12-18-4-3-9-25-18)26-20(23)16-6-5-15-11-17(24-2)8-7-14(15)10-16/h3-11,13H,12H2,1-2H3,(H,21,22)

> <PUBCHEM_IUPAC_INCHIKEY>
LFTKWWPDWMDKDT-UHFFFAOYSA-N

> <PUBCHEM_XLOGP3_AA>
3.3

> <PUBCHEM_EXACT_MASS>
353.126323

> <PUBCHEM_MOLECULAR_FORMULA>
C20H19NO5

> <PUBCHEM_MOLECULAR_WEIGHT>
353.36856

> <PUBCHEM_OPENEYE_CAN_SMILES>
CC(C(=O)NCC1=CC=CO1)OC(=O)C2=CC3=C(C=C2)C=C(C=C3)OC

> <PUBCHEM_OPENEYE_ISO_SMILES>
CC(C(=O)NCC1=CC=CO1)OC(=O)C2=CC3=C(C=C2)C=C(C=C3)OC

> <PUBCHEM_CACTVS_TPSA>
77.8

> <PUBCHEM_MONOISOTOPIC_WEIGHT>
353.126323

> <PUBCHEM_TOTAL_CHARGE>
0

> <PUBCHEM_HEAVY_ATOM_COUNT>
26

> <PUBCHEM_ATOM_DEF_STEREO_COUNT>
0

> <PUBCHEM_ATOM_UDEF_STEREO_COUNT>
1

> <PUBCHEM_BOND_DEF_STEREO_COUNT>
0

> <PUBCHEM_BOND_UDEF_STEREO_COUNT>
0

> <PUBCHEM_ISOTOPIC_ATOM_COUNT>
0

> <PUBCHEM_COMPONENT_COUNT>
1

> <PUBCHEM_CACTVS_TAUTO_COUNT>
2

> <PUBCHEM_COORDINATE_TYPE>
1
5
255

> <PUBCHEM_BONDANNOTATIONS>
10  11  8
10  13  8
12  13  8
14  19  8
15  21  8
19  21  8
22  23  8
23  24  8
24  25  8
3  22  8
3  25  8
7  11  8
7  15  8
7  8  8
8  12  8
8  14  8
9  20  3

$$$$

