5545
  -OEChem-06261200442D

 87 92  0     1  0  0  0  0  0999 V2000
    5.9499    1.6551    0.0000 F   0  0  0  0  0  0  0  0  0  0  0  0
    9.0594   -1.0583    0.0000 O   0  0  0  0  0  0  0  0  0  0  0  0
    8.4073   -2.5194    0.0000 O   0  0  0  0  0  0  0  0  0  0  0  0
    6.4739    2.2154    0.0000 O   0  0  0  0  0  0  0  0  0  0  0  0
    8.7828    0.6301    0.0000 O   0  0  0  0  0  0  0  0  0  0  0  0
   10.6092   -0.1850    0.0000 O   0  0  0  0  0  0  0  0  0  0  0  0
    2.0000    2.8598    0.0000 O   0  0  0  0  0  0  0  0  0  0  0  0
   11.6261   -1.5871    0.0000 O   0  0  0  0  0  0  0  0  0  0  0  0
   15.0715   -1.2280    0.0000 O   0  0  0  0  0  0  0  0  0  0  0  0
   14.0546    0.1741    0.0000 N   0  0  0  0  0  0  0  0  0  0  0  0
    7.3399   -0.2845    0.0000 C   0  0  3  0  0  0  0  0  0  0  0  0
    6.4739   -0.7845    0.0000 C   0  0  3  0  0  0  0  0  0  0  0  0
    5.6079   -0.2845    0.0000 C   0  0  3  0  0  0  0  0  0  0  0  0
    8.0770   -0.9516    0.0000 C   0  0  3  0  0  0  0  0  0  0  0  0
    5.6079    0.7155    0.0000 C   0  0  3  0  0  0  0  0  0  0  0  0
    7.6718   -1.8594    0.0000 C   0  0  3  0  0  0  0  0  0  0  0  0
    6.6831   -1.7564    0.0000 C   0  0  0  0  0  0  0  0  0  0  0  0
    7.3399    0.7155    0.0000 C   0  0  0  0  0  0  0  0  0  0  0  0
    6.4739    1.2154    0.0000 C   0  0  3  0  0  0  0  0  0  0  0  0
    4.7140    1.2501    0.0000 C   0  0  3  0  0  0  0  0  0  0  0  0
    4.7140   -0.8192    0.0000 C   0  0  0  0  0  0  0  0  0  0  0  0
    8.2060    0.2155    0.0000 C   0  0  0  0  0  0  0  0  0  0  0  0
    8.8865   -0.3645    0.0000 C   0  0  0  0  0  0  0  0  0  0  0  0
    3.8079   -0.3054    0.0000 C   0  0  0  0  0  0  0  0  0  0  0  0
    9.2632   -2.0253    0.0000 C   0  0  0  0  0  0  0  0  0  0  0  0
    3.8079    0.7363    0.0000 C   0  0  0  0  0  0  0  0  0  0  0  0
    5.3626    2.0112    0.0000 C   0  0  0  0  0  0  0  0  0  0  0  0
    4.7390    2.3348    0.0000 C   0  0  0  0  0  0  0  0  0  0  0  0
    9.7997   -0.7721    0.0000 C   0  0  0  0  0  0  0  0  0  0  0  0
    9.7624   -2.8917    0.0000 C   0  0  0  0  0  0  0  0  0  0  0  0
   10.2415   -1.8182    0.0000 C   0  0  0  0  0  0  0  0  0  0  0  0
    2.8641    1.2715    0.0000 C   0  0  0  0  0  0  0  0  0  0  0  0
    3.8079    2.8917    0.0000 C   0  0  0  0  0  0  0  0  0  0  0  0
    2.8641    2.3565    0.0000 C   0  0  0  0  0  0  0  0  0  0  0  0
   11.5224   -0.5925    0.0000 C   0  0  0  0  0  0  0  0  0  0  0  0
   12.3319   -0.0054    0.0000 C   0  0  3  0  0  0  0  0  0  0  0  0
   13.2451   -0.4130    0.0000 C   0  0  0  0  0  0  0  0  0  0  0  0
   12.2282    0.9892    0.0000 C   0  0  0  0  0  0  0  0  0  0  0  0
   14.9678   -0.2334    0.0000 C   0  0  0  0  0  0  0  0  0  0  0  0
   15.7774    0.3537    0.0000 C   0  0  0  0  0  0  0  0  0  0  0  0
   16.6905   -0.0538    0.0000 C   0  0  0  0  0  0  0  0  0  0  0  0
   15.6737    1.3483    0.0000 C   0  0  0  0  0  0  0  0  0  0  0  0
   17.5001    0.5332    0.0000 C   0  0  0  0  0  0  0  0  0  0  0  0
   16.4832    1.9354    0.0000 C   0  0  0  0  0  0  0  0  0  0  0  0
   17.3964    1.5279    0.0000 C   0  0  0  0  0  0  0  0  0  0  0  0
    5.9728   -1.1496    0.0000 H   0  0  0  0  0  0  0  0  0  0  0  0
    5.6127   -0.9045    0.0000 H   0  0  0  0  0  0  0  0  0  0  0  0
    7.4204   -2.4261    0.0000 H   0  0  0  0  0  0  0  0  0  0  0  0
    6.0666   -1.8224    0.0000 H   0  0  0  0  0  0  0  0  0  0  0  0
    6.6840   -2.3764    0.0000 H   0  0  0  0  0  0  0  0  0  0  0  0
    7.9505    0.6078    0.0000 H   0  0  0  0  0  0  0  0  0  0  0  0
    7.5520    1.2981    0.0000 H   0  0  0  0  0  0  0  0  0  0  0  0
    7.0108    1.5254    0.0000 H   0  0  0  0  0  0  0  0  0  0  0  0
    4.3203   -1.2982    0.0000 H   0  0  0  0  0  0  0  0  0  0  0  0
    5.1185   -1.2890    0.0000 H   0  0  0  0  0  0  0  0  0  0  0  0
    8.5160   -0.3215    0.0000 H   0  0  0  0  0  0  0  0  0  0  0  0
    8.7429    0.5255    0.0000 H   0  0  0  0  0  0  0  0  0  0  0  0
    7.8960    0.7524    0.0000 H   0  0  0  0  0  0  0  0  0  0  0  0
    3.1970   -0.1993    0.0000 H   0  0  0  0  0  0  0  0  0  0  0  0
    3.5988   -0.8891    0.0000 H   0  0  0  0  0  0  0  0  0  0  0  0
    5.8345    1.6090    0.0000 H   0  0  0  0  0  0  0  0  0  0  0  0
    5.7648    2.4830    0.0000 H   0  0  0  0  0  0  0  0  0  0  0  0
    4.8908    2.4134    0.0000 H   0  0  0  0  0  0  0  0  0  0  0  0
    5.2819    2.6344    0.0000 H   0  0  0  0  0  0  0  0  0  0  0  0
    7.0108    2.5255    0.0000 H   0  0  0  0  0  0  0  0  0  0  0  0
    9.4525   -1.2858    0.0000 H   0  0  0  0  0  0  0  0  0  0  0  0
   10.2453   -1.2032    0.0000 H   0  0  0  0  0  0  0  0  0  0  0  0
    9.2252   -3.2013    0.0000 H   0  0  0  0  0  0  0  0  0  0  0  0
   10.0719   -3.4289    0.0000 H   0  0  0  0  0  0  0  0  0  0  0  0
   10.2996   -2.5822    0.0000 H   0  0  0  0  0  0  0  0  0  0  0  0
   10.3699   -2.4248    0.0000 H   0  0  0  0  0  0  0  0  0  0  0  0
   10.8480   -1.6898    0.0000 H   0  0  0  0  0  0  0  0  0  0  0  0
   10.1131   -1.2116    0.0000 H   0  0  0  0  0  0  0  0  0  0  0  0
    2.3284    0.9594    0.0000 H   0  0  0  0  0  0  0  0  0  0  0  0
    3.8150    3.5117    0.0000 H   0  0  0  0  0  0  0  0  0  0  0  0
   12.8338    0.3586    0.0000 H   0  0  0  0  0  0  0  0  0  0  0  0
   12.8980   -0.9267    0.0000 H   0  0  0  0  0  0  0  0  0  0  0  0
   13.6907   -0.8440    0.0000 H   0  0  0  0  0  0  0  0  0  0  0  0
   12.8449    1.0535    0.0000 H   0  0  0  0  0  0  0  0  0  0  0  0
   12.1640    1.6058    0.0000 H   0  0  0  0  0  0  0  0  0  0  0  0
   11.6116    0.9249    0.0000 H   0  0  0  0  0  0  0  0  0  0  0  0
   13.9904    0.7908    0.0000 H   0  0  0  0  0  0  0  0  0  0  0  0
   16.7548   -0.6705    0.0000 H   0  0  0  0  0  0  0  0  0  0  0  0
   15.1075    1.6010    0.0000 H   0  0  0  0  0  0  0  0  0  0  0  0
   18.0663    0.2806    0.0000 H   0  0  0  0  0  0  0  0  0  0  0  0
   16.4189    2.5520    0.0000 H   0  0  0  0  0  0  0  0  0  0  0  0
   17.8983    1.8918    0.0000 H   0  0  0  0  0  0  0  0  0  0  0  0
  1 15  1  0  0  0  0
  2 14  1  0  0  0  0
  2 25  1  0  0  0  0
  3 16  1  0  0  0  0
  3 25  1  0  0  0  0
  4 19  1  0  0  0  0
  4 65  1  0  0  0  0
  5 23  2  0  0  0  0
  6 29  1  0  0  0  0
  6 35  1  0  0  0  0
  7 34  2  0  0  0  0
  8 35  2  0  0  0  0
  9 39  2  0  0  0  0
 10 37  1  0  0  0  0
 10 39  1  0  0  0  0
 10 82  1  0  0  0  0
 11 12  1  0  0  0  0
 11 14  1  0  0  0  0
 11 18  1  0  0  0  0
 11 22  1  0  0  0  0
 12 13  1  0  0  0  0
 12 17  1  0  0  0  0
 12 46  1  0  0  0  0
 13 15  1  0  0  0  0
 13 21  1  0  0  0  0
 13 47  1  0  0  0  0
 14 16  1  0  0  0  0
 14 23  1  0  0  0  0
 15 19  1  0  0  0  0
 15 20  1  0  0  0  0
 16 17  1  0  0  0  0
 16 48  1  0  0  0  0
 17 49  1  0  0  0  0
 17 50  1  0  0  0  0
 18 19  1  0  0  0  0
 18 51  1  0  0  0  0
 18 52  1  0  0  0  0
 19 53  1  0  0  0  0
 20 26  1  0  0  0  0
 20 27  1  0  0  0  0
 20 28  1  0  0  0  0
 21 24  1  0  0  0  0
 21 54  1  0  0  0  0
 21 55  1  0  0  0  0
 22 56  1  0  0  0  0
 22 57  1  0  0  0  0
 22 58  1  0  0  0  0
 23 29  1  0  0  0  0
 24 26  1  0  0  0  0
 24 59  1  0  0  0  0
 24 60  1  0  0  0  0
 25 30  1  0  0  0  0
 25 31  1  0  0  0  0
 26 32  2  0  0  0  0
 27 61  1  0  0  0  0
 27 62  1  0  0  0  0
 27 63  1  0  0  0  0
 28 33  2  0  0  0  0
 28 64  1  0  0  0  0
 29 66  1  0  0  0  0
 29 67  1  0  0  0  0
 30 68  1  0  0  0  0
 30 69  1  0  0  0  0
 30 70  1  0  0  0  0
 31 71  1  0  0  0  0
 31 72  1  0  0  0  0
 31 73  1  0  0  0  0
 32 34  1  0  0  0  0
 32 74  1  0  0  0  0
 33 34  1  0  0  0  0
 33 75  1  0  0  0  0
 35 36  1  0  0  0  0
 36 37  1  0  0  0  0
 36 38  1  0  0  0  0
 36 76  1  0  0  0  0
 37 77  1  0  0  0  0
 37 78  1  0  0  0  0
 38 79  1  0  0  0  0
 38 80  1  0  0  0  0
 38 81  1  0  0  0  0
 39 40  1  0  0  0  0
 40 41  2  0  0  0  0
 40 42  1  0  0  0  0
 41 43  1  0  0  0  0
 41 83  1  0  0  0  0
 42 44  2  0  0  0  0
 42 84  1  0  0  0  0
 43 45  2  0  0  0  0
 43 85  1  0  0  0  0
 44 45  1  0  0  0  0
 44 86  1  0  0  0  0
 45 87  1  0  0  0  0
M  END
> <PUBCHEM_COMPOUND_CID>
5545

> <PUBCHEM_COMPOUND_CANONICALIZED>
1

> <PUBCHEM_CACTVS_COMPLEXITY>
1340

> <PUBCHEM_CACTVS_HBOND_ACCEPTOR>
9

> <PUBCHEM_CACTVS_HBOND_DONOR>
2

> <PUBCHEM_CACTVS_ROTATABLE_BOND>
8

> <PUBCHEM_CACTVS_SUBSKEYS>
AAADcfB+PQAAAAAAAAAAAAAAAAAAAaIAAAAwYMEAAAASAGDBAAAAHwAQCAAAD1ThmAYyCILABgCIAqHSGAKCAAAkAAAIiIFIBMgZMD6AlRWmYQhntgCOiYfY7PzPgAAAAAAAAADAAAYAADAAAYAADCAAAA==

> <PUBCHEM_IUPAC_INCHI>
InChI=1S/C35H42FNO8/c1-20(18-37-29(41)21-9-7-6-8-10-21)30(42)43-19-27(40)35-28(44-31(2,3)45-35)16-25-24-12-11-22-15-23(38)13-14-32(22,4)34(24,36)26(39)17-33(25,35)5/h6-10,13-15,20,24-26,28,39H,11-12,16-19H2,1-5H3,(H,37,41)

> <PUBCHEM_IUPAC_INCHIKEY>
GUYPYYARYIIWJZ-UHFFFAOYSA-N

> <PUBCHEM_XLOGP3>
4.6

> <PUBCHEM_EXACT_MASS>
623.289446

> <PUBCHEM_MOLECULAR_FORMULA>
C35H42FNO8

> <PUBCHEM_MOLECULAR_WEIGHT>
623.708283

> <PUBCHEM_OPENEYE_CAN_SMILES>
CC(CNC(=O)C1=CC=CC=C1)C(=O)OCC(=O)C23C(CC4C2(CC(C5(C4CCC6=CC(=O)C=CC65C)F)O)C)OC(O3)(C)C

> <PUBCHEM_OPENEYE_ISO_SMILES>
CC(CNC(=O)C1=CC=CC=C1)C(=O)OCC(=O)C23C(CC4C2(CC(C5(C4CCC6=CC(=O)C=CC65C)F)O)C)OC(O3)(C)C

> <PUBCHEM_CACTVS_TPSA>
128

> <PUBCHEM_MONOISOTOPIC_WEIGHT>
623.289446

> <PUBCHEM_TOTAL_CHARGE>
0

> <PUBCHEM_HEAVY_ATOM_COUNT>
45

> <PUBCHEM_ATOM_DEF_STEREO_COUNT>
0

> <PUBCHEM_ATOM_UDEF_STEREO_COUNT>
9

> <PUBCHEM_BOND_DEF_STEREO_COUNT>
0

> <PUBCHEM_BOND_UDEF_STEREO_COUNT>
0

> <PUBCHEM_ISOTOPIC_ATOM_COUNT>
0

> <PUBCHEM_COMPONENT_COUNT>
1

> <PUBCHEM_CACTVS_TAUTO_COUNT>
12

> <PUBCHEM_COORDINATE_TYPE>
1
5
255

> <PUBCHEM_BONDANNOTATIONS>
15  1  3
11  22  3
12  17  3
13  21  3
14  23  3
16  17  3
20  27  3
36  38  3
19  4  3
40  41  8
40  42  8
41  43  8
42  44  8
43  45  8
44  45  8

$$$$

