13110
  -OEChem-06261207462D

 68 68  0     1  0  0  0  0  0999 V2000
    6.5254    0.0000    0.0000 I   0  5  0  0  0  0  0  0  0  0  0  0
    4.0138    8.2331    0.0000 N   0  3  3  0  0  0  0  0  0  0  0  0
    2.4750    7.7331    0.0000 C   0  0  0  0  0  0  0  0  0  0  0  0
    3.0627    8.5421    0.0000 C   0  0  0  0  0  0  0  0  0  0  0  0
    3.0627    6.9241    0.0000 C   0  0  0  0  0  0  0  0  0  0  0  0
    4.0138    7.2331    0.0000 C   0  0  0  0  0  0  0  0  0  0  0  0
    1.9750    6.8671    0.0000 C   0  0  0  0  0  0  0  0  0  0  0  0
    1.9750    8.5991    0.0000 C   0  0  0  0  0  0  0  0  0  0  0  0
    5.0138    8.2331    0.0000 C   0  0  0  0  0  0  0  0  0  0  0  0
    0.9749    6.8671    0.0000 C   0  0  0  0  0  0  0  0  0  0  0  0
    0.9749    8.5991    0.0000 C   0  0  0  0  0  0  0  0  0  0  0  0
    4.3228    9.1841    0.0000 C   0  0  0  0  0  0  0  0  0  0  0  0
    0.4749    7.7331    0.0000 C   0  0  0  0  0  0  0  0  0  0  0  0
    5.5138    7.3671    0.0000 C   0  0  0  0  0  0  0  0  0  0  0  0
    6.5138    7.3671    0.0000 C   0  0  0  0  0  0  0  0  0  0  0  0
    7.0138    6.5010    0.0000 C   0  0  0  0  0  0  0  0  0  0  0  0
    8.0138    6.5010    0.0000 C   0  0  0  0  0  0  0  0  0  0  0  0
    8.5138    5.6350    0.0000 C   0  0  0  0  0  0  0  0  0  0  0  0
    9.5138    5.6350    0.0000 C   0  0  0  0  0  0  0  0  0  0  0  0
   10.0138    4.7690    0.0000 C   0  0  0  0  0  0  0  0  0  0  0  0
   11.0138    4.7690    0.0000 C   0  0  0  0  0  0  0  0  0  0  0  0
   11.5138    3.9030    0.0000 C   0  0  0  0  0  0  0  0  0  0  0  0
   12.5138    3.9030    0.0000 C   0  0  0  0  0  0  0  0  0  0  0  0
   13.0138    3.0369    0.0000 C   0  0  0  0  0  0  0  0  0  0  0  0
    3.3149    9.1085    0.0000 H   0  0  0  0  0  0  0  0  0  0  0  0
    2.5258    8.8521    0.0000 H   0  0  0  0  0  0  0  0  0  0  0  0
    2.5258    6.6141    0.0000 H   0  0  0  0  0  0  0  0  0  0  0  0
    3.3149    6.3577    0.0000 H   0  0  0  0  0  0  0  0  0  0  0  0
    4.1427    6.6266    0.0000 H   0  0  0  0  0  0  0  0  0  0  0  0
    4.6304    7.2979    0.0000 H   0  0  0  0  0  0  0  0  0  0  0  0
    1.8673    6.2565    0.0000 H   0  0  0  0  0  0  0  0  0  0  0  0
    2.5576    6.6550    0.0000 H   0  0  0  0  0  0  0  0  0  0  0  0
    2.5576    8.8112    0.0000 H   0  0  0  0  0  0  0  0  0  0  0  0
    1.8673    9.2097    0.0000 H   0  0  0  0  0  0  0  0  0  0  0  0
    5.5964    8.4451    0.0000 H   0  0  0  0  0  0  0  0  0  0  0  0
    4.9061    8.8437    0.0000 H   0  0  0  0  0  0  0  0  0  0  0  0
    0.3923    6.6550    0.0000 H   0  0  0  0  0  0  0  0  0  0  0  0
    1.0826    6.2565    0.0000 H   0  0  0  0  0  0  0  0  0  0  0  0
    1.0826    9.2097    0.0000 H   0  0  0  0  0  0  0  0  0  0  0  0
    0.3923    8.8112    0.0000 H   0  0  0  0  0  0  0  0  0  0  0  0
    4.9125    8.9926    0.0000 H   0  0  0  0  0  0  0  0  0  0  0  0
    4.5144    9.7738    0.0000 H   0  0  0  0  0  0  0  0  0  0  0  0
    3.7332    9.3757    0.0000 H   0  0  0  0  0  0  0  0  0  0  0  0
    0.0000    8.1316    0.0000 H   0  0  0  0  0  0  0  0  0  0  0  0
    0.0000    7.3346    0.0000 H   0  0  0  0  0  0  0  0  0  0  0  0
    4.9312    7.1550    0.0000 H   0  0  0  0  0  0  0  0  0  0  0  0
    5.6214    6.7565    0.0000 H   0  0  0  0  0  0  0  0  0  0  0  0
    7.0964    7.5791    0.0000 H   0  0  0  0  0  0  0  0  0  0  0  0
    6.4061    7.9776    0.0000 H   0  0  0  0  0  0  0  0  0  0  0  0
    6.4312    6.2890    0.0000 H   0  0  0  0  0  0  0  0  0  0  0  0
    7.1214    5.8905    0.0000 H   0  0  0  0  0  0  0  0  0  0  0  0
    8.5964    6.7131    0.0000 H   0  0  0  0  0  0  0  0  0  0  0  0
    7.9061    7.1116    0.0000 H   0  0  0  0  0  0  0  0  0  0  0  0
    7.9312    5.4230    0.0000 H   0  0  0  0  0  0  0  0  0  0  0  0
    8.6214    5.0244    0.0000 H   0  0  0  0  0  0  0  0  0  0  0  0
   10.0964    5.8471    0.0000 H   0  0  0  0  0  0  0  0  0  0  0  0
    9.4061    6.2456    0.0000 H   0  0  0  0  0  0  0  0  0  0  0  0
    9.4312    4.5569    0.0000 H   0  0  0  0  0  0  0  0  0  0  0  0
   10.1215    4.1584    0.0000 H   0  0  0  0  0  0  0  0  0  0  0  0
   11.5964    4.9810    0.0000 H   0  0  0  0  0  0  0  0  0  0  0  0
   10.9061    5.3796    0.0000 H   0  0  0  0  0  0  0  0  0  0  0  0
   10.9312    3.6909    0.0000 H   0  0  0  0  0  0  0  0  0  0  0  0
   11.6215    3.2924    0.0000 H   0  0  0  0  0  0  0  0  0  0  0  0
   13.0964    4.1150    0.0000 H   0  0  0  0  0  0  0  0  0  0  0  0
   12.4061    4.5135    0.0000 H   0  0  0  0  0  0  0  0  0  0  0  0
   12.4769    2.7269    0.0000 H   0  0  0  0  0  0  0  0  0  0  0  0
   13.3238    2.5000    0.0000 H   0  0  0  0  0  0  0  0  0  0  0  0
   13.5507    3.3469    0.0000 H   0  0  0  0  0  0  0  0  0  0  0  0
  2  4  1  0  0  0  0
  2  6  1  0  0  0  0
  2  9  1  0  0  0  0
  2 12  1  0  0  0  0
  3  4  1  0  0  0  0
  3  5  1  0  0  0  0
  3  7  1  0  0  0  0
  3  8  1  0  0  0  0
  4 25  1  0  0  0  0
  4 26  1  0  0  0  0
  5  6  1  0  0  0  0
  5 27  1  0  0  0  0
  5 28  1  0  0  0  0
  6 29  1  0  0  0  0
  6 30  1  0  0  0  0
  7 10  1  0  0  0  0
  7 31  1  0  0  0  0
  7 32  1  0  0  0  0
  8 11  1  0  0  0  0
  8 33  1  0  0  0  0
  8 34  1  0  0  0  0
  9 14  1  0  0  0  0
  9 35  1  0  0  0  0
  9 36  1  0  0  0  0
 10 13  1  0  0  0  0
 10 37  1  0  0  0  0
 10 38  1  0  0  0  0
 11 13  1  0  0  0  0
 11 39  1  0  0  0  0
 11 40  1  0  0  0  0
 12 41  1  0  0  0  0
 12 42  1  0  0  0  0
 12 43  1  0  0  0  0
 13 44  1  0  0  0  0
 13 45  1  0  0  0  0
 14 15  1  0  0  0  0
 14 46  1  0  0  0  0
 14 47  1  0  0  0  0
 15 16  1  0  0  0  0
 15 48  1  0  0  0  0
 15 49  1  0  0  0  0
 16 17  1  0  0  0  0
 16 50  1  0  0  0  0
 16 51  1  0  0  0  0
 17 18  1  0  0  0  0
 17 52  1  0  0  0  0
 17 53  1  0  0  0  0
 18 19  1  0  0  0  0
 18 54  1  0  0  0  0
 18 55  1  0  0  0  0
 19 20  1  0  0  0  0
 19 56  1  0  0  0  0
 19 57  1  0  0  0  0
 20 21  1  0  0  0  0
 20 58  1  0  0  0  0
 20 59  1  0  0  0  0
 21 22  1  0  0  0  0
 21 60  1  0  0  0  0
 21 61  1  0  0  0  0
 22 23  1  0  0  0  0
 22 62  1  0  0  0  0
 22 63  1  0  0  0  0
 23 24  1  0  0  0  0
 23 64  1  0  0  0  0
 23 65  1  0  0  0  0
 24 66  1  0  0  0  0
 24 67  1  0  0  0  0
 24 68  1  0  0  0  0
M  CHG  2   1  -1   2   1
M  END
> <PUBCHEM_COMPOUND_CID>
13110

> <PUBCHEM_COMPOUND_CANONICALIZED>
1

> <PUBCHEM_CACTVS_COMPLEXITY>
305

> <PUBCHEM_CACTVS_HBOND_ACCEPTOR>
1

> <PUBCHEM_CACTVS_HBOND_DONOR>
0

> <PUBCHEM_CACTVS_ROTATABLE_BOND>
11

> <PUBCHEM_CACTVS_SUBSKEYS>
AAADcfB6AAAAAgAAAAAAAAAAAAAAAWAAAAAwAAAAAAAAAAAAAAAAHAAAAAAADgDBAAQCAAMAAAAAAAAAAAAAAAAAAAAAAAAIAAAAAAIAgAAEAAAAAACAAAEQgMAPAAAAAAAAAAAAAAAAAAAAAAAAAAAAAA==

> <PUBCHEM_IUPAC_OPENEYE_NAME>
2-dodecyl-2-methyl-2-azoniaspiro[4.5]decane iodide

> <PUBCHEM_IUPAC_CAS_NAME>
2-dodecyl-2-methyl-2-azoniaspiro[4.5]decane iodide

> <PUBCHEM_IUPAC_NAME>
2-dodecyl-2-methyl-2-azoniaspiro[4.5]decane iodide

> <PUBCHEM_IUPAC_SYSTEMATIC_NAME>
2-dodecyl-2-methyl-2-azoniaspiro[4.5]decane iodide

> <PUBCHEM_IUPAC_TRADITIONAL_NAME>
2-lauryl-2-methyl-2-azoniaspiro[4.5]decane iodide

> <PUBCHEM_IUPAC_INCHI>
InChI=1S/C22H44N.HI/c1-3-4-5-6-7-8-9-10-11-15-19-23(2)20-18-22(21-23)16-13-12-14-17-22;/h3-21H2,1-2H3;1H/q+1;/p-1

> <PUBCHEM_IUPAC_INCHIKEY>
YPMVIYLNABOTPA-UHFFFAOYSA-M

> <PUBCHEM_EXACT_MASS>
449.251848

> <PUBCHEM_MOLECULAR_FORMULA>
C22H44IN

> <PUBCHEM_MOLECULAR_WEIGHT>
449.49593

> <PUBCHEM_OPENEYE_CAN_SMILES>
CCCCCCCCCCCC[N+]1(CCC2(C1)CCCCC2)C.[I-]

> <PUBCHEM_OPENEYE_ISO_SMILES>
CCCCCCCCCCCC[N+]1(CCC2(C1)CCCCC2)C.[I-]

> <PUBCHEM_CACTVS_TPSA>
0

> <PUBCHEM_MONOISOTOPIC_WEIGHT>
449.251848

> <PUBCHEM_TOTAL_CHARGE>
0

> <PUBCHEM_HEAVY_ATOM_COUNT>
24

> <PUBCHEM_ATOM_DEF_STEREO_COUNT>
0

> <PUBCHEM_ATOM_UDEF_STEREO_COUNT>
1

> <PUBCHEM_BOND_DEF_STEREO_COUNT>
0

> <PUBCHEM_BOND_UDEF_STEREO_COUNT>
0

> <PUBCHEM_ISOTOPIC_ATOM_COUNT>
0

> <PUBCHEM_COMPONENT_COUNT>
2

> <PUBCHEM_CACTVS_TAUTO_COUNT>
1

> <PUBCHEM_COORDINATE_TYPE>
1
5
255

> <PUBCHEM_BONDANNOTATIONS>
2  9  3

$$$$

