13362
  -OEChem-06261209202D

 21 20  0     0  0  0  0  0  0999 V2000
    6.3301    1.5000    0.0000 O   0  0  0  0  0  0  0  0  0  0  0  0
    4.5981   -1.5000    0.0000 O   0  0  0  0  0  0  0  0  0  0  0  0
    5.4641    0.0000    0.0000 N   0  0  0  0  0  0  0  0  0  0  0  0
    5.4641   -1.0000    0.0000 N   0  0  0  0  0  0  0  0  0  0  0  0
    7.1962    0.0000    0.0000 N   0  0  0  0  0  0  0  0  0  0  0  0
    3.7320    0.0000    0.0000 C   0  0  0  0  0  0  0  0  0  0  0  0
    4.5981    0.5000    0.0000 C   0  0  0  0  0  0  0  0  0  0  0  0
    2.8660    0.5000    0.0000 C   0  0  0  0  0  0  0  0  0  0  0  0
    2.0000    0.0000    0.0000 C   0  0  0  0  0  0  0  0  0  0  0  0
    6.3301    0.5000    0.0000 C   0  0  0  0  0  0  0  0  0  0  0  0
    3.3335   -0.4749    0.0000 H   0  0  0  0  0  0  0  0  0  0  0  0
    4.1306   -0.4749    0.0000 H   0  0  0  0  0  0  0  0  0  0  0  0
    4.9966    0.9749    0.0000 H   0  0  0  0  0  0  0  0  0  0  0  0
    4.1996    0.9749    0.0000 H   0  0  0  0  0  0  0  0  0  0  0  0
    3.2646    0.9749    0.0000 H   0  0  0  0  0  0  0  0  0  0  0  0
    2.4675    0.9749    0.0000 H   0  0  0  0  0  0  0  0  0  0  0  0
    1.6900    0.5369    0.0000 H   0  0  0  0  0  0  0  0  0  0  0  0
    1.4631   -0.3100    0.0000 H   0  0  0  0  0  0  0  0  0  0  0  0
    2.3100   -0.5369    0.0000 H   0  0  0  0  0  0  0  0  0  0  0  0
    7.7331    0.3100    0.0000 H   0  0  0  0  0  0  0  0  0  0  0  0
    7.1962   -0.6200    0.0000 H   0  0  0  0  0  0  0  0  0  0  0  0
  1 10  2  0  0  0  0
  2  4  2  0  0  0  0
  3  4  1  0  0  0  0
  3  7  1  0  0  0  0
  3 10  1  0  0  0  0
  5 10  1  0  0  0  0
  5 20  1  0  0  0  0
  5 21  1  0  0  0  0
  6  7  1  0  0  0  0
  6  8  1  0  0  0  0
  6 11  1  0  0  0  0
  6 12  1  0  0  0  0
  7 13  1  0  0  0  0
  7 14  1  0  0  0  0
  8  9  1  0  0  0  0
  8 15  1  0  0  0  0
  8 16  1  0  0  0  0
  9 17  1  0  0  0  0
  9 18  1  0  0  0  0
  9 19  1  0  0  0  0
M  END
> <PUBCHEM_COMPOUND_CID>
13362

> <PUBCHEM_COMPOUND_CANONICALIZED>
1

> <PUBCHEM_CACTVS_COMPLEXITY>
126

> <PUBCHEM_CACTVS_HBOND_ACCEPTOR>
3

> <PUBCHEM_CACTVS_HBOND_DONOR>
1

> <PUBCHEM_CACTVS_ROTATABLE_BOND>
3

> <PUBCHEM_CACTVS_SUBSKEYS>
AAADccBjMAAAAAAAAAAAAAAAAAAAAAAAAAAAAAAAAAAAAAAAAAAAHgAcAAAACADBAAQDAAJAAAAJAAAAEAAAAAAAAAAWAAAIAACAAAAAgAAEAAAQBgIAAAAAAAAAAAAAAAAAAAAAAAAAAAAAAAAAAAAAAA==

> <PUBCHEM_IUPAC_OPENEYE_NAME>
1-butyl-1-nitroso-urea

> <PUBCHEM_IUPAC_CAS_NAME>
1-butyl-1-nitrosourea

> <PUBCHEM_IUPAC_NAME>
1-butyl-1-nitrosourea

> <PUBCHEM_IUPAC_SYSTEMATIC_NAME>
1-butyl-1-nitroso-urea

> <PUBCHEM_IUPAC_TRADITIONAL_NAME>
1-butyl-1-nitroso-urea

> <PUBCHEM_IUPAC_INCHI>
InChI=1S/C5H11N3O2/c1-2-3-4-8(7-10)5(6)9/h2-4H2,1H3,(H2,6,9)

> <PUBCHEM_IUPAC_INCHIKEY>
LSWOCDLIYSKTRX-UHFFFAOYSA-N

> <PUBCHEM_XLOGP3>
1.1

> <PUBCHEM_EXACT_MASS>
145.085127

> <PUBCHEM_MOLECULAR_FORMULA>
C5H11N3O2

> <PUBCHEM_MOLECULAR_WEIGHT>
145.15974

> <PUBCHEM_OPENEYE_CAN_SMILES>
CCCCN(C(=O)N)N=O

> <PUBCHEM_OPENEYE_ISO_SMILES>
CCCCN(C(=O)N)N=O

> <PUBCHEM_CACTVS_TPSA>
75.8

> <PUBCHEM_MONOISOTOPIC_WEIGHT>
145.085127

> <PUBCHEM_TOTAL_CHARGE>
0

> <PUBCHEM_HEAVY_ATOM_COUNT>
10

> <PUBCHEM_ATOM_DEF_STEREO_COUNT>
0

> <PUBCHEM_ATOM_UDEF_STEREO_COUNT>
0

> <PUBCHEM_BOND_DEF_STEREO_COUNT>
0

> <PUBCHEM_BOND_UDEF_STEREO_COUNT>
0

> <PUBCHEM_ISOTOPIC_ATOM_COUNT>
0

> <PUBCHEM_COMPONENT_COUNT>
1

> <PUBCHEM_CACTVS_TAUTO_COUNT>
2

> <PUBCHEM_COORDINATE_TYPE>
1
5
255

$$$$

