4363
  -OEChem-06261200042D

 32 31  0     1  0  0  0  0  0999 V2000
    3.7320   -1.7500    0.0000 S   0  0  0  0  0  0  0  0  0  0  0  0
    5.4641    2.2500    0.0000 O   0  0  0  0  0  0  0  0  0  0  0  0
    8.9282    1.2500    0.0000 O   0  0  0  0  0  0  0  0  0  0  0  0
    8.0622   -0.2500    0.0000 O   0  0  0  0  0  0  0  0  0  0  0  0
    2.0000    1.2500    0.0000 O   0  0  0  0  0  0  0  0  0  0  0  0
    6.3301    0.7500    0.0000 N   0  0  0  0  0  0  0  0  0  0  0  0
    3.7320    1.2500    0.0000 N   0  0  0  0  0  0  0  0  0  0  0  0
    4.5981    0.7500    0.0000 C   0  0  3  0  0  0  0  0  0  0  0  0
    4.5981   -0.2500    0.0000 C   0  0  0  0  0  0  0  0  0  0  0  0
    5.4641    1.2500    0.0000 C   0  0  0  0  0  0  0  0  0  0  0  0
    3.7320   -0.7500    0.0000 C   0  0  0  0  0  0  0  0  0  0  0  0
    7.1962    1.2500    0.0000 C   0  0  3  0  0  0  0  0  0  0  0  0
    7.1962    2.2500    0.0000 C   0  0  0  0  0  0  0  0  0  0  0  0
    8.0622    0.7500    0.0000 C   0  0  0  0  0  0  0  0  0  0  0  0
    2.8660    0.7500    0.0000 C   0  0  0  0  0  0  0  0  0  0  0  0
    2.8660   -2.2500    0.0000 C   0  0  0  0  0  0  0  0  0  0  0  0
    4.5981    1.3700    0.0000 H   0  0  0  0  0  0  0  0  0  0  0  0
    4.8101   -0.8326    0.0000 H   0  0  0  0  0  0  0  0  0  0  0  0
    5.2087   -0.1423    0.0000 H   0  0  0  0  0  0  0  0  0  0  0  0
    3.5200   -0.1674    0.0000 H   0  0  0  0  0  0  0  0  0  0  0  0
    3.1215   -0.8577    0.0000 H   0  0  0  0  0  0  0  0  0  0  0  0
    6.6592    1.5600    0.0000 H   0  0  0  0  0  0  0  0  0  0  0  0
    6.3301    0.1300    0.0000 H   0  0  0  0  0  0  0  0  0  0  0  0
    3.7320    1.8700    0.0000 H   0  0  0  0  0  0  0  0  0  0  0  0
    7.8162    2.2500    0.0000 H   0  0  0  0  0  0  0  0  0  0  0  0
    7.1962    2.8700    0.0000 H   0  0  0  0  0  0  0  0  0  0  0  0
    6.5762    2.2500    0.0000 H   0  0  0  0  0  0  0  0  0  0  0  0
    2.8660    0.1300    0.0000 H   0  0  0  0  0  0  0  0  0  0  0  0
    2.5560   -1.7131    0.0000 H   0  0  0  0  0  0  0  0  0  0  0  0
    2.3291   -2.5600    0.0000 H   0  0  0  0  0  0  0  0  0  0  0  0
    3.1760   -2.7869    0.0000 H   0  0  0  0  0  0  0  0  0  0  0  0
    9.4651    0.9400    0.0000 H   0  0  0  0  0  0  0  0  0  0  0  0
  1 11  1  0  0  0  0
  1 16  1  0  0  0  0
  2 10  2  0  0  0  0
  3 14  1  0  0  0  0
  3 32  1  0  0  0  0
  4 14  2  0  0  0  0
  5 15  2  0  0  0  0
  6 10  1  0  0  0  0
  6 12  1  0  0  0  0
  6 23  1  0  0  0  0
  7  8  1  0  0  0  0
  7 15  1  0  0  0  0
  7 24  1  0  0  0  0
  8  9  1  0  0  0  0
  8 10  1  0  0  0  0
  8 17  1  0  0  0  0
  9 11  1  0  0  0  0
  9 18  1  0  0  0  0
  9 19  1  0  0  0  0
 11 20  1  0  0  0  0
 11 21  1  0  0  0  0
 12 13  1  0  0  0  0
 12 14  1  0  0  0  0
 12 22  1  0  0  0  0
 13 25  1  0  0  0  0
 13 26  1  0  0  0  0
 13 27  1  0  0  0  0
 15 28  1  0  0  0  0
 16 29  1  0  0  0  0
 16 30  1  0  0  0  0
 16 31  1  0  0  0  0
M  END
> <PUBCHEM_COMPOUND_CID>
4363

> <PUBCHEM_COMPOUND_CANONICALIZED>
1

> <PUBCHEM_CACTVS_COMPLEXITY>
260

> <PUBCHEM_CACTVS_HBOND_ACCEPTOR>
5

> <PUBCHEM_CACTVS_HBOND_DONOR>
3

> <PUBCHEM_CACTVS_ROTATABLE_BOND>
7

> <PUBCHEM_CACTVS_SUBSKEYS>
AAADceBzOABAAAAAAAAAAAAAAAAAAAAAAAAAAAAAAAAAAAAAAAAAHgQQCAAACCjFwAaCCALAAggIAAGQmAAAAAAAABAAAIGIAAACQBAggCAUQAAAFgCQAAAAAAAAAAAAAAAAAAAAAAAAAAAAAAAAAAAAAA==

> <PUBCHEM_IUPAC_OPENEYE_NAME>
2-[(2-formamido-4-methylsulfanyl-butanoyl)amino]propanoic acid

> <PUBCHEM_IUPAC_CAS_NAME>
2-[[2-formamido-4-(methylthio)-1-oxobutyl]amino]propanoic acid

> <PUBCHEM_IUPAC_NAME>
2-[(2-formamido-4-methylsulfanylbutanoyl)amino]propanoic acid

> <PUBCHEM_IUPAC_SYSTEMATIC_NAME>
2-[(2-formamido-4-methylsulfanyl-butanoyl)amino]propanoic acid

> <PUBCHEM_IUPAC_TRADITIONAL_NAME>
2-[[2-formamido-4-(methylthio)butanoyl]amino]propionic acid

> <PUBCHEM_IUPAC_INCHI>
InChI=1S/C9H16N2O4S/c1-6(9(14)15)11-8(13)7(10-5-12)3-4-16-2/h5-7H,3-4H2,1-2H3,(H,10,12)(H,11,13)(H,14,15)

> <PUBCHEM_IUPAC_INCHIKEY>
GBWVAAKKEIOROG-UHFFFAOYSA-N

> <PUBCHEM_XLOGP3_AA>
-0.1

> <PUBCHEM_EXACT_MASS>
248.083078

> <PUBCHEM_MOLECULAR_FORMULA>
C9H16N2O4S

> <PUBCHEM_MOLECULAR_WEIGHT>
248.29934

> <PUBCHEM_OPENEYE_CAN_SMILES>
CC(C(=O)O)NC(=O)C(CCSC)NC=O

> <PUBCHEM_OPENEYE_ISO_SMILES>
CC(C(=O)O)NC(=O)C(CCSC)NC=O

> <PUBCHEM_CACTVS_TPSA>
121

> <PUBCHEM_MONOISOTOPIC_WEIGHT>
248.083078

> <PUBCHEM_TOTAL_CHARGE>
0

> <PUBCHEM_HEAVY_ATOM_COUNT>
16

> <PUBCHEM_ATOM_DEF_STEREO_COUNT>
0

> <PUBCHEM_ATOM_UDEF_STEREO_COUNT>
2

> <PUBCHEM_BOND_DEF_STEREO_COUNT>
0

> <PUBCHEM_BOND_UDEF_STEREO_COUNT>
0

> <PUBCHEM_ISOTOPIC_ATOM_COUNT>
0

> <PUBCHEM_COMPONENT_COUNT>
1

> <PUBCHEM_CACTVS_TAUTO_COUNT>
4

> <PUBCHEM_COORDINATE_TYPE>
1
5
255

> <PUBCHEM_BONDANNOTATIONS>
12  13  3
8  9  3

$$$$

