47205077
  -OEChem-06241222583D

 27 28  0     0  0  0  0  0  0999 V2000
   -5.3479   -1.1830   -0.0449 Cl  0  0  0  0  0  0  0  0  0  0  0  0
   -0.3818    1.9479    0.1353 O   0  0  0  0  0  0  0  0  0  0  0  0
    0.0607   -1.6907    1.0089 O   0  0  0  0  0  0  0  0  0  0  0  0
    0.6855   -0.6305   -0.9564 N   0  0  0  0  0  0  0  0  0  0  0  0
    3.5760    0.6542   -0.8375 N   0  0  0  0  0  0  0  0  0  0  0  0
    4.5238    1.1886   -0.0486 N   0  0  0  0  0  0  0  0  0  0  0  0
    1.9776   -1.2652   -1.0859 C   0  0  0  0  0  0  0  0  0  0  0  0
    3.0504   -0.5091   -0.3568 C   0  0  0  0  0  0  0  0  0  0  0  0
   -1.4750   -0.1868    0.0717 C   0  0  0  0  0  0  0  0  0  0  0  0
   -0.1991   -0.8885    0.0960 C   0  0  0  0  0  0  0  0  0  0  0  0
   -1.5250    1.2070    0.0928 C   0  0  0  0  0  0  0  0  0  0  0  0
    3.7000   -0.7528    0.8287 C   0  0  0  0  0  0  0  0  0  0  0  0
   -2.6566   -0.9264    0.0279 C   0  0  0  0  0  0  0  0  0  0  0  0
   -2.7568    1.8612    0.0700 C   0  0  0  0  0  0  0  0  0  0  0  0
   -3.8885   -0.2723    0.0051 C   0  0  0  0  0  0  0  0  0  0  0  0
   -3.9385    1.1216    0.0261 C   0  0  0  0  0  0  0  0  0  0  0  0
    4.5951    0.3248    0.9676 C   0  0  0  0  0  0  0  0  0  0  0  0
    2.2128   -1.3187   -2.1543 H   0  0  0  0  0  0  0  0  0  0  0  0
    1.9143   -2.2894   -0.7021 H   0  0  0  0  0  0  0  0  0  0  0  0
    0.4133    0.0335   -1.6759 H   0  0  0  0  0  0  0  0  0  0  0  0
    3.5476   -1.5878    1.4968 H   0  0  0  0  0  0  0  0  0  0  0  0
   -2.6170   -2.0136    0.0102 H   0  0  0  0  0  0  0  0  0  0  0  0
    3.3354    1.1396   -1.6928 H   0  0  0  0  0  0  0  0  0  0  0  0
   -2.8027    2.9468    0.0863 H   0  0  0  0  0  0  0  0  0  0  0  0
   -4.8911    1.6448    0.0092 H   0  0  0  0  0  0  0  0  0  0  0  0
    5.2962    0.5165    1.7671 H   0  0  0  0  0  0  0  0  0  0  0  0
    0.3961    1.3704    0.1968 H   0  0  0  0  0  0  0  0  0  0  0  0
  1 15  1  0  0  0  0
  2 11  1  0  0  0  0
  2 27  1  0  0  0  0
  3 10  2  0  0  0  0
  4  7  1  0  0  0  0
  4 10  1  0  0  0  0
  4 20  1  0  0  0  0
  5  6  1  0  0  0  0
  5  8  1  0  0  0  0
  5 23  1  0  0  0  0
  6 17  2  0  0  0  0
  7  8  1  0  0  0  0
  7 18  1  0  0  0  0
  7 19  1  0  0  0  0
  8 12  2  0  0  0  0
  9 10  1  0  0  0  0
  9 11  2  0  0  0  0
  9 13  1  0  0  0  0
 11 14  1  0  0  0  0
 12 17  1  0  0  0  0
 12 21  1  0  0  0  0
 13 15  2  0  0  0  0
 13 22  1  0  0  0  0
 14 16  2  0  0  0  0
 14 24  1  0  0  0  0
 15 16  1  0  0  0  0
 16 25  1  0  0  0  0
 17 26  1  0  0  0  0
M  END
> <PUBCHEM_COMPOUND_CID>
47205077

> <PUBCHEM_CONFORMER_RMSD>
0.6

> <PUBCHEM_CONFORMER_DIVERSEORDER>
1
69
24
26
37
62
17
67
58
38
57
32
70
10
74
55
34
43
47
56
11
35
65
20
64
29
53
71
68
7
21
61
60
22
72
39
9
44
66
51
18
25
8
49
41
63
28
50
19
13
54
3
52
59
42
23
16
46
30
2
12
40
73
75
27
36
4
6
15
48
45
31
14
5
33

> <PUBCHEM_MMFF94_PARTIAL_CHARGES>
25
1 -0.18
10 0.54
11 0.08
12 -0.15
13 -0.15
14 -0.15
15 0.18
16 -0.15
17 0.14
2 -0.53
20 0.37
21 0.15
22 0.15
23 0.27
24 0.15
25 0.15
26 0.15
27 0.45
3 -0.57
4 -0.73
5 0.3
6 -0.71
7 0.48
8 -0.33
9 0.09

> <PUBCHEM_EFFECTIVE_ROTOR_COUNT>
4

> <PUBCHEM_PHARMACOPHORE_FEATURES>
7
1 2 donor
1 3 acceptor
1 4 donor
1 5 donor
1 6 acceptor
5 5 6 8 12 17 rings
6 9 11 13 14 15 16 rings

> <PUBCHEM_HEAVY_ATOM_COUNT>
17

> <PUBCHEM_ATOM_DEF_STEREO_COUNT>
0

> <PUBCHEM_ATOM_UDEF_STEREO_COUNT>
0

> <PUBCHEM_BOND_DEF_STEREO_COUNT>
0

> <PUBCHEM_BOND_UDEF_STEREO_COUNT>
0

> <PUBCHEM_ISOTOPIC_ATOM_COUNT>
0

> <PUBCHEM_COMPONENT_COUNT>
1

> <PUBCHEM_CACTVS_TAUTO_COUNT>
14

> <PUBCHEM_CONFORMER_ID>
02D04AD500000001

> <PUBCHEM_MMFF94_ENERGY>
31.3234

> <PUBCHEM_FEATURE_SELFOVERLAP>
35.522

> <PUBCHEM_SHAPE_FINGERPRINT>
11128504 68 13984665828415336034
11132069 177 18410571820530320501
11405975 8 17898563430640789171
11806522 49 18410573955703845735
12236239 1 17704076196039061866
124424 183 13398628355540769703
12670546 56 16773806908374237220
13214271 11 18261115188192911789
13533116 47 17918000507255631738
13583140 156 15553583111773156909
13675066 3 13182733723687435878
14251764 18 18271812337584695362
14787075 74 18337953394216142081
14790565 3 17685768421901067185
15048467 5 16950275218156307587
15196674 1 18410011065410747308
15531645 54 10807943665091297167
17349148 13 17632852040552739027
17492 89 18266742557018092883
17862501 102 18059861678929360395
18186145 218 18191294077830539286
192875 21 17346874550777960101
200 152 15195285318107486923
20645477 70 16805591612565357534
21618674 57 12535352307124549823
23175994 123 13542463176604405439
23227448 37 17678187001031173532
23402539 116 18410864239421467583
23557571 272 18114167653489129615
23559900 14 18045783656781034502
3009799 131 18341062852471630007
34934 24 18338520858686658645
351380 180 18410578400857859984
4340502 62 16844999234918349817
474 4 17775279427051340852
5104073 3 18263359342796284915
5374978 207 18412546509296647994
537710 114 18409443665844989532
6333272 397 18342173362830317930
7364860 26 17977948208805455026
9709674 26 18410566318777869838

> <PUBCHEM_SHAPE_MULTIPOLES>
325.04
10.36
1.76
0.9
1.71
0.49
-0.01
0.19
0.91
-0.88
0.04
0.73
-0.19
0.06

> <PUBCHEM_SHAPE_SELFOVERLAP>
686.912

> <PUBCHEM_SHAPE_VOLUME>
182.8

> <PUBCHEM_COORDINATE_TYPE>
2
5
10

$$$$

