14387
  -OEChem-06241222432D

 41 42  0     0  0  0  0  0  0999 V2000
    2.9230    2.8184    0.0000 S   0  0  0  0  0  0  0  0  0  0  0  0
    2.8660   -3.2694    0.0000 O   0  0  0  0  0  0  0  0  0  0  0  0
    3.7320    1.2306    0.0000 N   0  0  0  0  0  0  0  0  0  0  0  0
    6.3301    0.7306    0.0000 N   0  0  0  0  0  0  0  0  0  0  0  0
    4.5411    2.8184    0.0000 N   0  0  0  0  0  0  0  0  0  0  0  0
    4.5981    0.7306    0.0000 C   0  0  0  0  0  0  0  0  0  0  0  0
    5.4641    1.2306    0.0000 C   0  0  0  0  0  0  0  0  0  0  0  0
    2.8660    0.7306    0.0000 C   0  0  0  0  0  0  0  0  0  0  0  0
    2.8660   -0.2694    0.0000 C   0  0  0  0  0  0  0  0  0  0  0  0
    3.7320    2.2306    0.0000 C   0  0  0  0  0  0  0  0  0  0  0  0
    7.1962    1.2306    0.0000 C   0  0  0  0  0  0  0  0  0  0  0  0
    6.3301   -0.2694    0.0000 C   0  0  0  0  0  0  0  0  0  0  0  0
    2.0000   -0.7694    0.0000 C   0  0  0  0  0  0  0  0  0  0  0  0
    3.7320   -0.7694    0.0000 C   0  0  0  0  0  0  0  0  0  0  0  0
    2.0000   -1.7694    0.0000 C   0  0  0  0  0  0  0  0  0  0  0  0
    3.7320   -1.7694    0.0000 C   0  0  0  0  0  0  0  0  0  0  0  0
    2.8660   -2.2694    0.0000 C   0  0  0  0  0  0  0  0  0  0  0  0
    3.2320    3.7694    0.0000 C   0  0  0  0  0  0  0  0  0  0  0  0
    4.2320    3.7694    0.0000 C   0  0  0  0  0  0  0  0  0  0  0  0
    2.0000   -3.7694    0.0000 C   0  0  0  0  0  0  0  0  0  0  0  0
    4.1996    0.2556    0.0000 H   0  0  0  0  0  0  0  0  0  0  0  0
    4.9966    0.2556    0.0000 H   0  0  0  0  0  0  0  0  0  0  0  0
    5.8626    1.7055    0.0000 H   0  0  0  0  0  0  0  0  0  0  0  0
    5.0656    1.7055    0.0000 H   0  0  0  0  0  0  0  0  0  0  0  0
    2.6540    1.3132    0.0000 H   0  0  0  0  0  0  0  0  0  0  0  0
    2.2554    0.6229    0.0000 H   0  0  0  0  0  0  0  0  0  0  0  0
    7.5062    0.6936    0.0000 H   0  0  0  0  0  0  0  0  0  0  0  0
    7.7331    1.5406    0.0000 H   0  0  0  0  0  0  0  0  0  0  0  0
    6.8862    1.7675    0.0000 H   0  0  0  0  0  0  0  0  0  0  0  0
    5.7101   -0.2694    0.0000 H   0  0  0  0  0  0  0  0  0  0  0  0
    6.3301   -0.8894    0.0000 H   0  0  0  0  0  0  0  0  0  0  0  0
    6.9501   -0.2694    0.0000 H   0  0  0  0  0  0  0  0  0  0  0  0
    1.4631   -0.4594    0.0000 H   0  0  0  0  0  0  0  0  0  0  0  0
    4.2690   -0.4594    0.0000 H   0  0  0  0  0  0  0  0  0  0  0  0
    1.4631   -2.0794    0.0000 H   0  0  0  0  0  0  0  0  0  0  0  0
    4.2690   -2.0794    0.0000 H   0  0  0  0  0  0  0  0  0  0  0  0
    2.8676    4.2710    0.0000 H   0  0  0  0  0  0  0  0  0  0  0  0
    4.5965    4.2710    0.0000 H   0  0  0  0  0  0  0  0  0  0  0  0
    1.6900   -3.2325    0.0000 H   0  0  0  0  0  0  0  0  0  0  0  0
    1.4631   -4.0794    0.0000 H   0  0  0  0  0  0  0  0  0  0  0  0
    2.3100   -4.3064    0.0000 H   0  0  0  0  0  0  0  0  0  0  0  0
  1 10  1  0  0  0  0
  1 18  1  0  0  0  0
  2 17  1  0  0  0  0
  2 20  1  0  0  0  0
  3  6  1  0  0  0  0
  3  8  1  0  0  0  0
  3 10  1  0  0  0  0
  4  7  1  0  0  0  0
  4 11  1  0  0  0  0
  4 12  1  0  0  0  0
  5 10  2  0  0  0  0
  5 19  1  0  0  0  0
  6  7  1  0  0  0  0
  6 21  1  0  0  0  0
  6 22  1  0  0  0  0
  7 23  1  0  0  0  0
  7 24  1  0  0  0  0
  8  9  1  0  0  0  0
  8 25  1  0  0  0  0
  8 26  1  0  0  0  0
  9 13  2  0  0  0  0
  9 14  1  0  0  0  0
 11 27  1  0  0  0  0
 11 28  1  0  0  0  0
 11 29  1  0  0  0  0
 12 30  1  0  0  0  0
 12 31  1  0  0  0  0
 12 32  1  0  0  0  0
 13 15  1  0  0  0  0
 13 33  1  0  0  0  0
 14 16  2  0  0  0  0
 14 34  1  0  0  0  0
 15 17  2  0  0  0  0
 15 35  1  0  0  0  0
 16 17  1  0  0  0  0
 16 36  1  0  0  0  0
 18 19  2  0  0  0  0
 18 37  1  0  0  0  0
 19 38  1  0  0  0  0
 20 39  1  0  0  0  0
 20 40  1  0  0  0  0
 20 41  1  0  0  0  0
M  END
> <PUBCHEM_COMPOUND_CID>
14387

> <PUBCHEM_COMPOUND_CANONICALIZED>
1

> <PUBCHEM_CACTVS_COMPLEXITY>
270

> <PUBCHEM_CACTVS_HBOND_ACCEPTOR>
5

> <PUBCHEM_CACTVS_HBOND_DONOR>
0

> <PUBCHEM_CACTVS_ROTATABLE_BOND>
7

> <PUBCHEM_CACTVS_SUBSKEYS>
AAADceBzIABAAAAAAAAAAAAAAAAAAWAAAAAwAAAAAAAAAAABwAAAHgQAAAAADATF2ga/l5MIFAikAjBnZACC+KlxKjhJyAweLIiMZiKEuRuUMChswBOIqCeQ0AIOIAAAAAAAAABAAAAAAAAAAAAAAAAAAA==

> <PUBCHEM_IUPAC_OPENEYE_NAME>
N'-[(4-methoxyphenyl)methyl]-N,N-dimethyl-N'-thiazol-2-yl-ethane-1,2-diamine

> <PUBCHEM_IUPAC_CAS_NAME>
N'-[(4-methoxyphenyl)methyl]-N,N-dimethyl-N'-(2-thiazolyl)ethane-1,2-diamine

> <PUBCHEM_IUPAC_NAME>
N'-[(4-methoxyphenyl)methyl]-N,N-dimethyl-N'-(1,3-thiazol-2-yl)ethane-1,2-diamine

> <PUBCHEM_IUPAC_SYSTEMATIC_NAME>
N'-[(4-methoxyphenyl)methyl]-N,N-dimethyl-N'-(1,3-thiazol-2-yl)ethane-1,2-diamine

> <PUBCHEM_IUPAC_TRADITIONAL_NAME>
dimethyl-[2-[p-anisyl(thiazol-2-yl)amino]ethyl]amine

> <PUBCHEM_IUPAC_INCHI>
InChI=1S/C15H21N3OS/c1-17(2)9-10-18(15-16-8-11-20-15)12-13-4-6-14(19-3)7-5-13/h4-8,11H,9-10,12H2,1-3H3

> <PUBCHEM_IUPAC_INCHIKEY>
KYBJXENQEZJILU-UHFFFAOYSA-N

> <PUBCHEM_XLOGP3_AA>
2.9

> <PUBCHEM_EXACT_MASS>
291.140533

> <PUBCHEM_MOLECULAR_FORMULA>
C15H21N3OS

> <PUBCHEM_MOLECULAR_WEIGHT>
291.41174

> <PUBCHEM_OPENEYE_CAN_SMILES>
CN(C)CCN(CC1=CC=C(C=C1)OC)C2=NC=CS2

> <PUBCHEM_OPENEYE_ISO_SMILES>
CN(C)CCN(CC1=CC=C(C=C1)OC)C2=NC=CS2

> <PUBCHEM_CACTVS_TPSA>
56.8

> <PUBCHEM_MONOISOTOPIC_WEIGHT>
291.140533

> <PUBCHEM_TOTAL_CHARGE>
0

> <PUBCHEM_HEAVY_ATOM_COUNT>
20

> <PUBCHEM_ATOM_DEF_STEREO_COUNT>
0

> <PUBCHEM_ATOM_UDEF_STEREO_COUNT>
0

> <PUBCHEM_BOND_DEF_STEREO_COUNT>
0

> <PUBCHEM_BOND_UDEF_STEREO_COUNT>
0

> <PUBCHEM_ISOTOPIC_ATOM_COUNT>
0

> <PUBCHEM_COMPONENT_COUNT>
1

> <PUBCHEM_CACTVS_TAUTO_COUNT>
1

> <PUBCHEM_COORDINATE_TYPE>
1
5
255

> <PUBCHEM_BONDANNOTATIONS>
1  10  8
1  18  8
13  15  8
14  16  8
15  17  8
16  17  8
18  19  8
5  10  8
5  19  8
9  13  8
9  14  8

$$$$

