582708
  -OEChem-06241222432D

 43 44  0     0  0  0  0  0  0999 V2000
    3.0000   -2.8623    0.0000 S   0  0  0  0  0  0  0  0  0  0  0  0
    3.0000   -3.8623    0.0000 S   0  0  0  0  0  0  0  0  0  0  0  0
    6.4641    2.1377    0.0000 O   0  0  0  0  0  0  0  0  0  0  0  0
    3.0000   -4.8623    0.0000 O   0  0  0  0  0  0  0  0  0  0  0  0
    2.0000   -3.8623    0.0000 O   0  0  0  0  0  0  0  0  0  0  0  0
    4.0000   -3.8623    0.0000 O   0  0  0  0  0  0  0  0  0  0  0  0
    4.7320   -0.8623    0.0000 N   0  0  0  0  0  0  0  0  0  0  0  0
    6.4641    5.1377    0.0000 N   0  0  0  0  0  0  0  0  0  0  0  0
    5.5981    0.6377    0.0000 C   0  0  0  0  0  0  0  0  0  0  0  0
    4.7320    0.1377    0.0000 C   0  0  0  0  0  0  0  0  0  0  0  0
    5.5981    1.6377    0.0000 C   0  0  0  0  0  0  0  0  0  0  0  0
    3.8660   -1.3623    0.0000 C   0  0  0  0  0  0  0  0  0  0  0  0
    6.4641    3.1377    0.0000 C   0  0  0  0  0  0  0  0  0  0  0  0
    7.3301    3.6377    0.0000 C   0  0  0  0  0  0  0  0  0  0  0  0
    7.3301    4.6377    0.0000 C   0  0  0  0  0  0  0  0  0  0  0  0
    3.8660   -2.3623    0.0000 C   0  0  0  0  0  0  0  0  0  0  0  0
    5.5981    3.6377    0.0000 C   0  0  0  0  0  0  0  0  0  0  0  0
    5.5981    4.6377    0.0000 C   0  0  0  0  0  0  0  0  0  0  0  0
    8.2241    3.1030    0.0000 C   0  0  0  0  0  0  0  0  0  0  0  0
    8.2241    5.1723    0.0000 C   0  0  0  0  0  0  0  0  0  0  0  0
    9.1301    3.6168    0.0000 C   0  0  0  0  0  0  0  0  0  0  0  0
    9.1301    4.6585    0.0000 C   0  0  0  0  0  0  0  0  0  0  0  0
    4.7320    5.1377    0.0000 C   0  0  0  0  0  0  0  0  0  0  0  0
    5.8101    0.0551    0.0000 H   0  0  0  0  0  0  0  0  0  0  0  0
    6.2087    0.7453    0.0000 H   0  0  0  0  0  0  0  0  0  0  0  0
    4.5200    0.7203    0.0000 H   0  0  0  0  0  0  0  0  0  0  0  0
    4.1215    0.0300    0.0000 H   0  0  0  0  0  0  0  0  0  0  0  0
    5.3860    2.2203    0.0000 H   0  0  0  0  0  0  0  0  0  0  0  0
    4.9875    1.5300    0.0000 H   0  0  0  0  0  0  0  0  0  0  0  0
    5.2690   -1.1723    0.0000 H   0  0  0  0  0  0  0  0  0  0  0  0
    3.6540   -0.7797    0.0000 H   0  0  0  0  0  0  0  0  0  0  0  0
    3.2554   -1.4700    0.0000 H   0  0  0  0  0  0  0  0  0  0  0  0
    4.0781   -2.9449    0.0000 H   0  0  0  0  0  0  0  0  0  0  0  0
    4.4766   -2.2547    0.0000 H   0  0  0  0  0  0  0  0  0  0  0  0
    5.0611    3.3277    0.0000 H   0  0  0  0  0  0  0  0  0  0  0  0
    8.2169    2.4830    0.0000 H   0  0  0  0  0  0  0  0  0  0  0  0
    8.2169    5.7923    0.0000 H   0  0  0  0  0  0  0  0  0  0  0  0
    9.6659    3.3048    0.0000 H   0  0  0  0  0  0  0  0  0  0  0  0
    9.6659    4.9706    0.0000 H   0  0  0  0  0  0  0  0  0  0  0  0
    5.0420    5.6746    0.0000 H   0  0  0  0  0  0  0  0  0  0  0  0
    4.1951    5.4477    0.0000 H   0  0  0  0  0  0  0  0  0  0  0  0
    4.4220    4.6007    0.0000 H   0  0  0  0  0  0  0  0  0  0  0  0
    2.4631   -5.1723    0.0000 H   0  0  0  0  0  0  0  0  0  0  0  0
  1  2  1  0  0  0  0
  1 16  1  0  0  0  0
  2  4  1  0  0  0  0
  2  5  2  0  0  0  0
  2  6  2  0  0  0  0
  3 11  1  0  0  0  0
  3 13  1  0  0  0  0
  4 43  1  0  0  0  0
  7 10  1  0  0  0  0
  7 12  1  0  0  0  0
  7 30  1  0  0  0  0
  8 15  1  0  0  0  0
  8 18  2  0  0  0  0
  9 10  1  0  0  0  0
  9 11  1  0  0  0  0
  9 24  1  0  0  0  0
  9 25  1  0  0  0  0
 10 26  1  0  0  0  0
 10 27  1  0  0  0  0
 11 28  1  0  0  0  0
 11 29  1  0  0  0  0
 12 16  1  0  0  0  0
 12 31  1  0  0  0  0
 12 32  1  0  0  0  0
 13 14  1  0  0  0  0
 13 17  2  0  0  0  0
 14 15  1  0  0  0  0
 14 19  2  0  0  0  0
 15 20  2  0  0  0  0
 16 33  1  0  0  0  0
 16 34  1  0  0  0  0
 17 18  1  0  0  0  0
 17 35  1  0  0  0  0
 18 23  1  0  0  0  0
 19 21  1  0  0  0  0
 19 36  1  0  0  0  0
 20 22  1  0  0  0  0
 20 37  1  0  0  0  0
 21 22  2  0  0  0  0
 21 38  1  0  0  0  0
 22 39  1  0  0  0  0
 23 40  1  0  0  0  0
 23 41  1  0  0  0  0
 23 42  1  0  0  0  0
M  END
> <PUBCHEM_COMPOUND_CID>
582708

> <PUBCHEM_COMPOUND_CANONICALIZED>
1

> <PUBCHEM_CACTVS_COMPLEXITY>
441

> <PUBCHEM_CACTVS_HBOND_ACCEPTOR>
7

> <PUBCHEM_CACTVS_HBOND_DONOR>
2

> <PUBCHEM_CACTVS_ROTATABLE_BOND>
9

> <PUBCHEM_CACTVS_SUBSKEYS>
AAADceBzOABgAAAAAAAAAAAAAAAAAAAAAAA8QAAAAAAAAACx8AAAHgQQCAAADAzl3gayxvLIFICgAyRiRDCCiCAhIiAImKA+bJgMJuLEsZuGOCjm0BnI6AeQwKAOAAAAAAACAAAAAAAAAAQAAAAAAAAAAA==

> <PUBCHEM_IUPAC_OPENEYE_NAME>
2-methyl-4-[3-(2-sulfosulfanylethylamino)propoxy]quinoline

> <PUBCHEM_IUPAC_CAS_NAME>
2-methyl-4-[3-[2-(sulfothio)ethylamino]propoxy]quinoline

> <PUBCHEM_IUPAC_NAME>
2-methyl-4-[3-(2-sulfosulfanylethylamino)propoxy]quinoline

> <PUBCHEM_IUPAC_SYSTEMATIC_NAME>
2-methyl-4-[3-(2-sulfosulfanylethylamino)propoxy]quinoline

> <PUBCHEM_IUPAC_TRADITIONAL_NAME>
2-methyl-4-[3-[2-(sulfothio)ethylamino]propoxy]quinoline

> <PUBCHEM_IUPAC_INCHI>
InChI=1S/C15H20N2O4S2/c1-12-11-15(13-5-2-3-6-14(13)17-12)21-9-4-7-16-8-10-22-23(18,19)20/h2-3,5-6,11,16H,4,7-10H2,1H3,(H,18,19,20)

> <PUBCHEM_IUPAC_INCHIKEY>
NERVTFJOLNSGFG-UHFFFAOYSA-N

> <PUBCHEM_XLOGP3>
-0.2

> <PUBCHEM_EXACT_MASS>
356.086449

> <PUBCHEM_MOLECULAR_FORMULA>
C15H20N2O4S2

> <PUBCHEM_MOLECULAR_WEIGHT>
356.4603

> <PUBCHEM_OPENEYE_CAN_SMILES>
CC1=NC2=CC=CC=C2C(=C1)OCCCNCCSS(=O)(=O)O

> <PUBCHEM_OPENEYE_ISO_SMILES>
CC1=NC2=CC=CC=C2C(=C1)OCCCNCCSS(=O)(=O)O

> <PUBCHEM_CACTVS_TPSA>
122

> <PUBCHEM_MONOISOTOPIC_WEIGHT>
356.086449

> <PUBCHEM_TOTAL_CHARGE>
0

> <PUBCHEM_HEAVY_ATOM_COUNT>
23

> <PUBCHEM_ATOM_DEF_STEREO_COUNT>
0

> <PUBCHEM_ATOM_UDEF_STEREO_COUNT>
0

> <PUBCHEM_BOND_DEF_STEREO_COUNT>
0

> <PUBCHEM_BOND_UDEF_STEREO_COUNT>
0

> <PUBCHEM_ISOTOPIC_ATOM_COUNT>
0

> <PUBCHEM_COMPONENT_COUNT>
1

> <PUBCHEM_CACTVS_TAUTO_COUNT>
1

> <PUBCHEM_COORDINATE_TYPE>
1
5
255

> <PUBCHEM_BONDANNOTATIONS>
13  14  8
13  17  8
14  15  8
14  19  8
15  20  8
17  18  8
19  21  8
20  22  8
21  22  8
8  15  8
8  18  8

$$$$

