13203
  -OEChem-06261207532D

 17 17  0     1  0  0  0  0  0999 V2000
    3.7320    1.5000    0.0000 Cl  0  0  0  0  0  0  0  0  0  0  0  0
    2.0000    0.5000    0.0000 O   0  0  0  0  0  0  0  0  0  0  0  0
    4.5981   -1.0000    0.0000 C   0  0  0  0  0  0  0  0  0  0  0  0
    4.5981    0.0000    0.0000 C   0  0  0  0  0  0  0  0  0  0  0  0
    3.7320   -1.5000    0.0000 C   0  0  0  0  0  0  0  0  0  0  0  0
    3.7320    0.5000    0.0000 C   0  0  3  0  0  0  0  0  0  0  0  0
    2.8660   -1.0000    0.0000 C   0  0  0  0  0  0  0  0  0  0  0  0
    2.8660    0.0000    0.0000 C   0  0  0  0  0  0  0  0  0  0  0  0
    4.8101   -1.5826    0.0000 H   0  0  0  0  0  0  0  0  0  0  0  0
    5.2087   -0.8923    0.0000 H   0  0  0  0  0  0  0  0  0  0  0  0
    5.2087   -0.1077    0.0000 H   0  0  0  0  0  0  0  0  0  0  0  0
    4.8101    0.5826    0.0000 H   0  0  0  0  0  0  0  0  0  0  0  0
    3.3335   -1.9750    0.0000 H   0  0  0  0  0  0  0  0  0  0  0  0
    4.1306   -1.9750    0.0000 H   0  0  0  0  0  0  0  0  0  0  0  0
    4.2690    0.8100    0.0000 H   0  0  0  0  0  0  0  0  0  0  0  0
    2.2554   -0.8923    0.0000 H   0  0  0  0  0  0  0  0  0  0  0  0
    2.6540   -1.5826    0.0000 H   0  0  0  0  0  0  0  0  0  0  0  0
  1  6  1  0  0  0  0
  2  8  2  0  0  0  0
  3  4  1  0  0  0  0
  3  5  1  0  0  0  0
  3  9  1  0  0  0  0
  3 10  1  0  0  0  0
  4  6  1  0  0  0  0
  4 11  1  0  0  0  0
  4 12  1  0  0  0  0
  5  7  1  0  0  0  0
  5 13  1  0  0  0  0
  5 14  1  0  0  0  0
  6  8  1  0  0  0  0
  6 15  1  0  0  0  0
  7  8  1  0  0  0  0
  7 16  1  0  0  0  0
  7 17  1  0  0  0  0
M  END
> <PUBCHEM_COMPOUND_CID>
13203

> <PUBCHEM_COMPOUND_CANONICALIZED>
1

> <PUBCHEM_CACTVS_COMPLEXITY>
101

> <PUBCHEM_CACTVS_HBOND_ACCEPTOR>
1

> <PUBCHEM_CACTVS_HBOND_DONOR>
0

> <PUBCHEM_CACTVS_ROTATABLE_BOND>
0

> <PUBCHEM_CACTVS_SUBSKEYS>
AAADccBgIAAEAAAAAAAAAAAAAAAAAAAAAAAwAAAAAAAAAAAAAAAAGgIAAAAACAeAgEAAAAAAAAAIAIAQAAAAAAAAAAAAAAEAAgBAABIBAAAAAAAAAAAAAAEICAAAAAAAAAAAAAAAAAAAAAAAAAAAAAAAAA==

> <PUBCHEM_IUPAC_OPENEYE_NAME>
2-chlorocyclohexanone

> <PUBCHEM_IUPAC_CAS_NAME>
2-chloro-1-cyclohexanone

> <PUBCHEM_IUPAC_NAME>
2-chlorocyclohexan-1-one

> <PUBCHEM_IUPAC_SYSTEMATIC_NAME>
2-chloranylcyclohexan-1-one

> <PUBCHEM_IUPAC_TRADITIONAL_NAME>
2-chlorocyclohexanone

> <PUBCHEM_IUPAC_INCHI>
InChI=1S/C6H9ClO/c7-5-3-1-2-4-6(5)8/h5H,1-4H2

> <PUBCHEM_IUPAC_INCHIKEY>
CCHNWURRBFGQCD-UHFFFAOYSA-N

> <PUBCHEM_XLOGP3_AA>
1.5

> <PUBCHEM_EXACT_MASS>
132.034193

> <PUBCHEM_MOLECULAR_FORMULA>
C6H9ClO

> <PUBCHEM_MOLECULAR_WEIGHT>
132.58806

> <PUBCHEM_OPENEYE_CAN_SMILES>
C1CCC(=O)C(C1)Cl

> <PUBCHEM_OPENEYE_ISO_SMILES>
C1CCC(=O)C(C1)Cl

> <PUBCHEM_CACTVS_TPSA>
17.1

> <PUBCHEM_MONOISOTOPIC_WEIGHT>
132.034193

> <PUBCHEM_TOTAL_CHARGE>
0

> <PUBCHEM_HEAVY_ATOM_COUNT>
8

> <PUBCHEM_ATOM_DEF_STEREO_COUNT>
0

> <PUBCHEM_ATOM_UDEF_STEREO_COUNT>
1

> <PUBCHEM_BOND_DEF_STEREO_COUNT>
0

> <PUBCHEM_BOND_UDEF_STEREO_COUNT>
0

> <PUBCHEM_ISOTOPIC_ATOM_COUNT>
0

> <PUBCHEM_COMPONENT_COUNT>
1

> <PUBCHEM_CACTVS_TAUTO_COUNT>
3

> <PUBCHEM_COORDINATE_TYPE>
1
5
255

> <PUBCHEM_BONDANNOTATIONS>
6  1  3

$$$$

