7846926
  -OEChem-06241222463D

 38 40  0     0  0  0  0  0  0999 V2000
   -1.8971   -2.3269    0.0783 Cl  0  0  0  0  0  0  0  0  0  0  0  0
    3.6926    0.0551   -1.1971 S   0  0  0  0  0  0  0  0  0  0  0  0
    0.2964    2.0573   -0.4048 O   0  0  0  0  0  0  0  0  0  0  0  0
    0.5483    3.6978    1.1975 O   0  0  0  0  0  0  0  0  0  0  0  0
   -1.0594    0.1333   -1.6633 O   0  0  0  0  0  0  0  0  0  0  0  0
    2.4728    0.2618    1.0659 N   0  0  0  0  0  0  0  0  0  0  0  0
    3.4205    2.3876    0.2392 C   0  0  0  0  0  0  0  0  0  0  0  0
    2.3167    3.2434   -0.4095 C   0  0  0  0  0  0  0  0  0  0  0  0
    3.1357    0.9386    0.1575 C   0  0  0  0  0  0  0  0  0  0  0  0
    2.9965   -1.3774   -0.5365 C   0  0  0  0  0  0  0  0  0  0  0  0
    2.3847   -1.0684    0.6821 C   0  0  0  0  0  0  0  0  0  0  0  0
    0.9659    3.0564    0.2433 C   0  0  0  0  0  0  0  0  0  0  0  0
    2.9922   -2.6808   -1.0589 C   0  0  0  0  0  0  0  0  0  0  0  0
    1.7466   -2.1023    1.4012 C   0  0  0  0  0  0  0  0  0  0  0  0
   -1.0079    1.7590    0.1032 C   0  0  0  0  0  0  0  0  0  0  0  0
    2.3539   -3.6854   -0.3273 C   0  0  0  0  0  0  0  0  0  0  0  0
    1.7386   -3.4021    0.8870 C   0  0  0  0  0  0  0  0  0  0  0  0
   -2.9875    0.1445   -0.3117 C   0  0  0  0  0  0  0  0  0  0  0  0
   -1.6355    0.6382   -0.7024 C   0  0  0  0  0  0  0  0  0  0  0  0
   -3.1797   -1.1705    0.0509 C   0  0  0  0  0  0  0  0  0  0  0  0
   -4.0159    1.0637   -0.3320 C   0  0  0  0  0  0  0  0  0  0  0  0
   -4.4611   -1.5883    0.4108 C   0  0  0  0  0  0  0  0  0  0  0  0
   -5.2972    0.6457    0.0276 C   0  0  0  0  0  0  0  0  0  0  0  0
   -5.5198   -0.6801    0.3990 C   0  0  0  0  0  0  0  0  0  0  0  0
    3.5105    2.6673    1.2968 H   0  0  0  0  0  0  0  0  0  0  0  0
    4.3837    2.6301   -0.2256 H   0  0  0  0  0  0  0  0  0  0  0  0
    2.2301    3.0327   -1.4826 H   0  0  0  0  0  0  0  0  0  0  0  0
    2.5767    4.3056   -0.3302 H   0  0  0  0  0  0  0  0  0  0  0  0
    3.4703   -2.9093   -2.0065 H   0  0  0  0  0  0  0  0  0  0  0  0
    1.2614   -1.8918    2.3501 H   0  0  0  0  0  0  0  0  0  0  0  0
   -1.6320    2.6545    0.0241 H   0  0  0  0  0  0  0  0  0  0  0  0
   -0.9238    1.4314    1.1451 H   0  0  0  0  0  0  0  0  0  0  0  0
    2.3385   -4.7009   -0.7141 H   0  0  0  0  0  0  0  0  0  0  0  0
    1.2458   -4.1960    1.4416 H   0  0  0  0  0  0  0  0  0  0  0  0
   -3.8596    2.0963   -0.6285 H   0  0  0  0  0  0  0  0  0  0  0  0
   -4.6516   -2.6181    0.7026 H   0  0  0  0  0  0  0  0  0  0  0  0
   -6.1221    1.3521    0.0162 H   0  0  0  0  0  0  0  0  0  0  0  0
   -6.5176   -1.0054    0.6784 H   0  0  0  0  0  0  0  0  0  0  0  0
  1 20  1  0  0  0  0
  2  9  1  0  0  0  0
  2 10  1  0  0  0  0
  3 12  1  0  0  0  0
  3 15  1  0  0  0  0
  4 12  2  0  0  0  0
  5 19  2  0  0  0  0
  6  9  2  0  0  0  0
  6 11  1  0  0  0  0
  7  8  1  0  0  0  0
  7  9  1  0  0  0  0
  7 25  1  0  0  0  0
  7 26  1  0  0  0  0
  8 12  1  0  0  0  0
  8 27  1  0  0  0  0
  8 28  1  0  0  0  0
 10 11  1  0  0  0  0
 10 13  2  0  0  0  0
 11 14  2  0  0  0  0
 13 16  1  0  0  0  0
 13 29  1  0  0  0  0
 14 17  1  0  0  0  0
 14 30  1  0  0  0  0
 15 19  1  0  0  0  0
 15 31  1  0  0  0  0
 15 32  1  0  0  0  0
 16 17  2  0  0  0  0
 16 33  1  0  0  0  0
 17 34  1  0  0  0  0
 18 19  1  0  0  0  0
 18 20  1  0  0  0  0
 18 21  2  0  0  0  0
 20 22  2  0  0  0  0
 21 23  1  0  0  0  0
 21 35  1  0  0  0  0
 22 24  1  0  0  0  0
 22 36  1  0  0  0  0
 23 24  2  0  0  0  0
 23 37  1  0  0  0  0
 24 38  1  0  0  0  0
M  END
> <PUBCHEM_COMPOUND_CID>
7846926

> <PUBCHEM_CONFORMER_RMSD>
1.2

> <PUBCHEM_CONFORMER_DIVERSEORDER>
1
51
167
176
91
8
32
185
14
16
93
5
121
111
114
153
12
69
110
33
150
123
63
161
98
177
55
164
180
44
34
70
72
25
4
170
140
43
83
30
15
27
184
41
146
99
117
13
87
154
103
28
45
144
94
171
79
106
67
126
107
137
76
190
58
186
148
163
152
122
46
37
3
54
85
92
155
89
147
142
75
77
175
29
52
181
159
61
18
133
40
130
84
105
19
36
141
74
118
113
183
162
11
82
38
56
193
116
86
169
129
9
2
127
158
115
80
166
157
189
20
39
22
35
182
81
191
149
112
135
53
108
119
47
50
165
187
132
6
145
95
100
21
90
24
71
104
139
151
138
31
73
102
68
66
136
173
160
120
143
17
128
7
96
88
134
48
26
125
78
101
59
62
156
179
57
172
124
188
10
168
49
97
192
64
23
60
131
42
174
65
109
178

> <PUBCHEM_MMFF94_PARTIAL_CHARGES>
32
1 -0.18
10 0.04
11 0.23
12 0.66
13 -0.15
14 -0.15
15 0.34
16 -0.15
17 -0.15
18 0.09
19 0.42
2 -0.08
20 0.18
21 -0.15
22 -0.15
23 -0.15
24 -0.15
29 0.15
3 -0.43
30 0.15
33 0.15
34 0.15
35 0.15
36 0.15
37 0.15
38 0.15
4 -0.57
5 -0.57
6 -0.57
7 0.18
8 0.06
9 0.2

> <PUBCHEM_EFFECTIVE_ROTOR_COUNT>
7

> <PUBCHEM_PHARMACOPHORE_FEATURES>
6
1 4 acceptor
1 5 acceptor
1 6 acceptor
5 2 6 9 10 11 rings
6 10 11 13 14 16 17 rings
6 18 20 21 22 23 24 rings

> <PUBCHEM_HEAVY_ATOM_COUNT>
24

> <PUBCHEM_ATOM_DEF_STEREO_COUNT>
0

> <PUBCHEM_ATOM_UDEF_STEREO_COUNT>
0

> <PUBCHEM_BOND_DEF_STEREO_COUNT>
0

> <PUBCHEM_BOND_UDEF_STEREO_COUNT>
0

> <PUBCHEM_ISOTOPIC_ATOM_COUNT>
0

> <PUBCHEM_COMPONENT_COUNT>
1

> <PUBCHEM_CACTVS_TAUTO_COUNT>
4

> <PUBCHEM_CONFORMER_ID>
0077BC0E00000001

> <PUBCHEM_MMFF94_ENERGY>
49.0306

> <PUBCHEM_FEATURE_SELFOVERLAP>
30.517

> <PUBCHEM_SHAPE_FINGERPRINT>
10064457 181 17835805196834524604
10616163 171 18052820243556778491
11014199 57 17907012129813278474
114674 6 18342457032345672914
11578080 2 17488761084750842581
12107183 9 18046618186718362177
12553582 1 18337403719822029526
12596599 1 18042385981156751402
12633257 1 18271259234778025914
12788726 201 18048029958846182896
13140716 1 18194412082190166112
13402501 40 18271242720860673314
13533116 47 18335702703189795401
13583140 156 18337117761543456237
138480 1 18339081600457307490
14251757 5 17037805410303714046
14617045 38 18342448206451220725
14790565 3 18051970316621430172
14863182 85 18411981326424820196
15635459 17 18341610408281300987
15664445 248 18411688886080273996
17818456 19 17750508654360031361
17909252 39 17970896998646769702
19930381 70 18411702127453637891
21197605 99 17764582123695992995
21421861 104 18412262856555656369
23559900 14 18337391642564014199
239999 70 18408599249689142406
2818148 4 17975960279223854220
3117164 225 18192697051148496953
314173 41 18411980303536366175
3323516 105 18342737390620051041
3421961 26 18408887368874764640
3680242 22 18271813419088013008
5265222 85 17838321991946435788
6433294 58 18412827988494388331
6443956 14 18411695474243458092
6823239 73 18409444795590024546
7097593 13 18335706031309531949
9709674 26 18341611478192602299
9777508 108 17109884444554587384

> <PUBCHEM_SHAPE_MULTIPOLES>
477.04
9.5
4.67
1.11
12.73
0.32
0.04
-1.62
0.37
-4.79
-0.76
-0.65
-0.19
0.48

> <PUBCHEM_SHAPE_SELFOVERLAP>
1008.765

> <PUBCHEM_SHAPE_VOLUME>
268.3

> <PUBCHEM_COORDINATE_TYPE>
2
5
10

$$$$

