586347
  -OEChem-06241222462D

 28 29  0     0  0  0  0  0  0999 V2000
    3.7634    0.4045    0.0000 N   0  0  0  0  0  0  0  0  0  0  0  0
    2.0000    1.2135    0.0000 N   0  0  0  0  0  0  0  0  0  0  0  0
    3.1756   -0.4045    0.0000 C   0  0  0  0  0  0  0  0  0  0  0  0
    2.3666   -0.9923    0.0000 C   0  0  0  0  0  0  0  0  0  0  0  0
    3.9846   -0.9923    0.0000 C   0  0  0  0  0  0  0  0  0  0  0  0
    3.6756   -1.9434    0.0000 C   0  0  0  0  0  0  0  0  0  0  0  0
    2.6756   -1.9434    0.0000 C   0  0  0  0  0  0  0  0  0  0  0  0
    4.7634    0.4045    0.0000 C   0  0  0  0  0  0  0  0  0  0  0  0
    3.4543    1.3556    0.0000 C   0  0  0  0  0  0  0  0  0  0  0  0
    4.2634    1.9434    0.0000 C   0  0  0  0  0  0  0  0  0  0  0  0
    5.0724    1.3556    0.0000 C   0  0  0  0  0  0  0  0  0  0  0  0
    2.5878    0.4045    0.0000 C   0  0  0  0  0  0  0  0  0  0  0  0
    4.5510   -1.2445    0.0000 H   0  0  0  0  0  0  0  0  0  0  0  0
    4.2946   -0.4554    0.0000 H   0  0  0  0  0  0  0  0  0  0  0  0
    2.0566   -0.4554    0.0000 H   0  0  0  0  0  0  0  0  0  0  0  0
    1.8002   -1.2445    0.0000 H   0  0  0  0  0  0  0  0  0  0  0  0
    3.6108   -2.5600    0.0000 H   0  0  0  0  0  0  0  0  0  0  0  0
    4.2820   -2.0723    0.0000 H   0  0  0  0  0  0  0  0  0  0  0  0
    2.0691   -2.0723    0.0000 H   0  0  0  0  0  0  0  0  0  0  0  0
    2.7404   -2.5600    0.0000 H   0  0  0  0  0  0  0  0  0  0  0  0
    3.1443    1.8925    0.0000 H   0  0  0  0  0  0  0  0  0  0  0  0
    2.8879    1.1034    0.0000 H   0  0  0  0  0  0  0  0  0  0  0  0
    4.6986   -0.2121    0.0000 H   0  0  0  0  0  0  0  0  0  0  0  0
    5.3698    0.2756    0.0000 H   0  0  0  0  0  0  0  0  0  0  0  0
    4.6782    2.4041    0.0000 H   0  0  0  0  0  0  0  0  0  0  0  0
    3.8485    2.4041    0.0000 H   0  0  0  0  0  0  0  0  0  0  0  0
    5.6388    1.1034    0.0000 H   0  0  0  0  0  0  0  0  0  0  0  0
    5.3824    1.8925    0.0000 H   0  0  0  0  0  0  0  0  0  0  0  0
  1  3  1  0  0  0  0
  1  8  1  0  0  0  0
  1  9  1  0  0  0  0
  2 12  3  0  0  0  0
  3  4  1  0  0  0  0
  3  5  1  0  0  0  0
  3 12  1  0  0  0  0
  4  7  1  0  0  0  0
  4 15  1  0  0  0  0
  4 16  1  0  0  0  0
  5  6  1  0  0  0  0
  5 13  1  0  0  0  0
  5 14  1  0  0  0  0
  6  7  1  0  0  0  0
  6 17  1  0  0  0  0
  6 18  1  0  0  0  0
  7 19  1  0  0  0  0
  7 20  1  0  0  0  0
  8 11  1  0  0  0  0
  8 23  1  0  0  0  0
  8 24  1  0  0  0  0
  9 10  1  0  0  0  0
  9 21  1  0  0  0  0
  9 22  1  0  0  0  0
 10 11  1  0  0  0  0
 10 25  1  0  0  0  0
 10 26  1  0  0  0  0
 11 27  1  0  0  0  0
 11 28  1  0  0  0  0
M  END
> <PUBCHEM_COMPOUND_CID>
586347

> <PUBCHEM_COMPOUND_CANONICALIZED>
1

> <PUBCHEM_CACTVS_COMPLEXITY>
201

> <PUBCHEM_CACTVS_HBOND_ACCEPTOR>
2

> <PUBCHEM_CACTVS_HBOND_DONOR>
0

> <PUBCHEM_CACTVS_ROTATABLE_BOND>
1

> <PUBCHEM_CACTVS_SUBSKEYS>
AAADceBzAAAAAAAAAAAAAAAAAAAAAeIAAAAAAAAAAAAAAAAAAAAAHAAAAAAADIjBAAQAAAMAAAAQBAAAAAAAAAAAAAAAAAAIAAAAgAIAgAAEAAAAAACAAAkQAAAOAAAAAAAAAAAAAAAAAAAAAAAAAAAAAA==

> <PUBCHEM_IUPAC_OPENEYE_NAME>
1-pyrrolidin-1-ylcyclopentanecarbonitrile

> <PUBCHEM_IUPAC_CAS_NAME>
1-(1-pyrrolidinyl)-1-cyclopentanecarbonitrile

> <PUBCHEM_IUPAC_NAME>
1-pyrrolidin-1-ylcyclopentane-1-carbonitrile

> <PUBCHEM_IUPAC_SYSTEMATIC_NAME>
1-pyrrolidin-1-ylcyclopentane-1-carbonitrile

> <PUBCHEM_IUPAC_TRADITIONAL_NAME>
1-pyrrolidinocyclopentanecarbonitrile

> <PUBCHEM_IUPAC_INCHI>
InChI=1S/C10H16N2/c11-9-10(5-1-2-6-10)12-7-3-4-8-12/h1-8H2

> <PUBCHEM_IUPAC_INCHIKEY>
IMHJQDPMRXKEFF-UHFFFAOYSA-N

> <PUBCHEM_XLOGP3_AA>
1.6

> <PUBCHEM_EXACT_MASS>
164.131349

> <PUBCHEM_MOLECULAR_FORMULA>
C10H16N2

> <PUBCHEM_MOLECULAR_WEIGHT>
164.24744

> <PUBCHEM_OPENEYE_CAN_SMILES>
C1CCC(C1)(C#N)N2CCCC2

> <PUBCHEM_OPENEYE_ISO_SMILES>
C1CCC(C1)(C#N)N2CCCC2

> <PUBCHEM_CACTVS_TPSA>
27

> <PUBCHEM_MONOISOTOPIC_WEIGHT>
164.131349

> <PUBCHEM_TOTAL_CHARGE>
0

> <PUBCHEM_HEAVY_ATOM_COUNT>
12

> <PUBCHEM_ATOM_DEF_STEREO_COUNT>
0

> <PUBCHEM_ATOM_UDEF_STEREO_COUNT>
0

> <PUBCHEM_BOND_DEF_STEREO_COUNT>
0

> <PUBCHEM_BOND_UDEF_STEREO_COUNT>
0

> <PUBCHEM_ISOTOPIC_ATOM_COUNT>
0

> <PUBCHEM_COMPONENT_COUNT>
1

> <PUBCHEM_CACTVS_TAUTO_COUNT>
1

> <PUBCHEM_COORDINATE_TYPE>
1
5
255

$$$$

