14114
  -OEChem-06241222423D

 24 24  0     0  0  0  0  0  0999 V2000
    2.8477   -0.4173    0.0377 O   0  0  0  0  0  0  0  0  0  0  0  0
    4.6977    0.9274   -0.2249 O   0  0  0  0  0  0  0  0  0  0  0  0
    4.8726   -1.1771    0.6847 N   0  0  0  0  0  0  0  0  0  0  0  0
   -1.8041    0.3039    0.0685 C   0  0  0  0  0  0  0  0  0  0  0  0
   -0.4142    0.7327    0.0773 C   0  0  0  0  0  0  0  0  0  0  0  0
   -2.1245   -1.0165   -0.2472 C   0  0  0  0  0  0  0  0  0  0  0  0
   -2.8165    1.2130    0.3756 C   0  0  0  0  0  0  0  0  0  0  0  0
    0.6113    0.1087   -0.5458 C   0  0  0  0  0  0  0  0  0  0  0  0
    2.0243    0.5970   -0.5208 C   0  0  0  0  0  0  0  0  0  0  0  0
   -3.4574   -1.4278   -0.2560 C   0  0  0  0  0  0  0  0  0  0  0  0
   -4.1494    0.8015    0.3669 C   0  0  0  0  0  0  0  0  0  0  0  0
   -4.4697   -0.5189    0.0512 C   0  0  0  0  0  0  0  0  0  0  0  0
    4.1823   -0.1265    0.1327 C   0  0  0  0  0  0  0  0  0  0  0  0
   -0.2039    1.6457    0.6306 H   0  0  0  0  0  0  0  0  0  0  0  0
   -1.3694   -1.7638   -0.4728 H   0  0  0  0  0  0  0  0  0  0  0  0
   -2.5864    2.2466    0.6229 H   0  0  0  0  0  0  0  0  0  0  0  0
    0.4464   -0.7884   -1.1355 H   0  0  0  0  0  0  0  0  0  0  0  0
    2.3459    0.8060   -1.5477 H   0  0  0  0  0  0  0  0  0  0  0  0
    2.1173    1.5138    0.0733 H   0  0  0  0  0  0  0  0  0  0  0  0
   -3.7073   -2.4570   -0.4972 H   0  0  0  0  0  0  0  0  0  0  0  0
   -4.9379    1.5091    0.6060 H   0  0  0  0  0  0  0  0  0  0  0  0
   -5.5074   -0.8394    0.0456 H   0  0  0  0  0  0  0  0  0  0  0  0
    4.4006   -2.0302    0.9652 H   0  0  0  0  0  0  0  0  0  0  0  0
    5.8757   -1.1328    0.8291 H   0  0  0  0  0  0  0  0  0  0  0  0
  1  9  1  0  0  0  0
  1 13  1  0  0  0  0
  2 13  2  0  0  0  0
  3 13  1  0  0  0  0
  3 23  1  0  0  0  0
  3 24  1  0  0  0  0
  4  5  1  0  0  0  0
  4  6  2  0  0  0  0
  4  7  1  0  0  0  0
  5  8  2  0  0  0  0
  5 14  1  0  0  0  0
  6 10  1  0  0  0  0
  6 15  1  0  0  0  0
  7 11  2  0  0  0  0
  7 16  1  0  0  0  0
  8  9  1  0  0  0  0
  8 17  1  0  0  0  0
  9 18  1  0  0  0  0
  9 19  1  0  0  0  0
 10 12  2  0  0  0  0
 10 20  1  0  0  0  0
 11 12  1  0  0  0  0
 11 21  1  0  0  0  0
 12 22  1  0  0  0  0
M  END
> <PUBCHEM_COMPOUND_CID>
14114

> <PUBCHEM_CONFORMER_RMSD>
0.6

> <PUBCHEM_CONFORMER_DIVERSEORDER>
1
23
19
16
22
15
5
14
10
17
2
8
18
3
9
11
4
7
20
13
21
12
6

> <PUBCHEM_MMFF94_PARTIAL_CHARGES>
22
1 -0.43
10 -0.15
11 -0.15
12 -0.15
13 0.78
14 0.15
15 0.15
16 0.15
17 0.15
2 -0.57
20 0.15
21 0.15
22 0.15
23 0.37
24 0.37
3 -0.8
4 0.03
5 -0.18
6 -0.15
7 -0.15
8 -0.29
9 0.42

> <PUBCHEM_EFFECTIVE_ROTOR_COUNT>
4

> <PUBCHEM_PHARMACOPHORE_FEATURES>
3
1 2 acceptor
1 3 donor
6 4 6 7 10 11 12 rings

> <PUBCHEM_HEAVY_ATOM_COUNT>
13

> <PUBCHEM_ATOM_DEF_STEREO_COUNT>
0

> <PUBCHEM_ATOM_UDEF_STEREO_COUNT>
0

> <PUBCHEM_BOND_DEF_STEREO_COUNT>
0

> <PUBCHEM_BOND_UDEF_STEREO_COUNT>
1

> <PUBCHEM_ISOTOPIC_ATOM_COUNT>
0

> <PUBCHEM_COMPONENT_COUNT>
1

> <PUBCHEM_CACTVS_TAUTO_COUNT>
2

> <PUBCHEM_CONFORMER_ID>
0000372200000001

> <PUBCHEM_MMFF94_ENERGY>
27.2119

> <PUBCHEM_FEATURE_SELFOVERLAP>
15.223

> <PUBCHEM_SHAPE_FINGERPRINT>
10465860 250 17967535679028876305
10680689 15 17203610406155668461
10912923 1 18412542107044931352
12107183 9 17690279734945692856
13167823 11 18413672417841060346
14123238 8 18410572872855258780
15375358 24 17676201394526324223
17834072 33 18341047428737875388
18186145 218 14908177521388915045
200 152 18413111636998850999
20279233 1 17240475914475324285
204376 136 15068627067292191420
20645477 56 18261104227742795081
20645477 70 13829863451921738760
20828058 44 18333732429059023982
22485316 2 18413672409129559468
22646028 1 18343303664904383714
23402539 116 18259992587100774245
23559900 14 18334580114048974264
23590187 198 18343021120428374266
300161 21 18342462525919840276
42 15 18411981377441694470
4214541 1 18410011065263145201
5104073 3 18335981991052337112
573450 72 18410578409046894059
77779 3 18409446977443869432

> <PUBCHEM_SHAPE_MULTIPOLES>
250.81
10.9
1.27
0.71
9.8
0.15
0
1.41
-1.42
-0.65
-0.05
0.12
0.01
-0.69

> <PUBCHEM_SHAPE_SELFOVERLAP>
512.678

> <PUBCHEM_SHAPE_VOLUME>
144.6

> <PUBCHEM_COORDINATE_TYPE>
2
5
10

$$$$

