17395634
  -OEChem-06241222513D

 61 63  0     0  0  0  0  0  0999 V2000
   -4.4342    0.1695   -1.6527 S   0  0  0  0  0  0  0  0  0  0  0  0
   -5.3251    1.2576   -1.9953 O   0  0  0  0  0  0  0  0  0  0  0  0
   -3.9007   -0.7066   -2.6740 O   0  0  0  0  0  0  0  0  0  0  0  0
    4.1971    0.9533   -0.3133 O   0  0  0  0  0  0  0  0  0  0  0  0
    1.9713    1.8521    0.7037 O   0  0  0  0  0  0  0  0  0  0  0  0
    6.0719    1.0159    1.7465 O   0  0  0  0  0  0  0  0  0  0  0  0
   -5.1577   -0.7811   -0.4265 N   0  0  0  0  0  0  0  0  0  0  0  0
    0.6120    0.6702   -0.8158 N   0  0  0  0  0  0  0  0  0  0  0  0
   -6.5891   -1.1188   -0.6399 C   0  0  0  0  0  0  0  0  0  0  0  0
   -4.3180   -1.8519    0.1676 C   0  0  0  0  0  0  0  0  0  0  0  0
   -7.2240   -1.9106    0.5005 C   0  0  0  0  0  0  0  0  0  0  0  0
   -4.2724   -1.6587    1.6794 C   0  0  0  0  0  0  0  0  0  0  0  0
   -6.8358   -1.4396    1.9014 C   0  0  0  0  0  0  0  0  0  0  0  0
   -5.5455   -2.0862    2.4082 C   0  0  0  0  0  0  0  0  0  0  0  0
   -3.0740    0.8484   -0.7549 C   0  0  0  0  0  0  0  0  0  0  0  0
   -3.2781    1.7184    0.3162 C   0  0  0  0  0  0  0  0  0  0  0  0
   -1.7774    0.4994   -1.1328 C   0  0  0  0  0  0  0  0  0  0  0  0
   -0.6848    1.0201   -0.4393 C   0  0  0  0  0  0  0  0  0  0  0  0
   -2.1855    2.2391    1.0095 C   0  0  0  0  0  0  0  0  0  0  0  0
   -4.6533    2.1120    0.7466 C   0  0  0  0  0  0  0  0  0  0  0  0
   -0.8890    1.8899    0.6318 C   0  0  0  0  0  0  0  0  0  0  0  0
    1.8216    1.0870   -0.2441 C   0  0  0  0  0  0  0  0  0  0  0  0
    3.0219    0.4831   -0.9404 C   0  0  0  0  0  0  0  0  0  0  0  0
    5.2936    0.1247   -0.3351 C   0  0  0  0  0  0  0  0  0  0  0  0
    6.2296    0.1599    0.6986 C   0  0  0  0  0  0  0  0  0  0  0  0
    7.5110   -1.5669   -0.4031 C   0  0  0  0  0  0  0  0  0  0  0  0
    5.4663   -0.7563   -1.4026 C   0  0  0  0  0  0  0  0  0  0  0  0
    7.3382   -0.6860    0.6646 C   0  0  0  0  0  0  0  0  0  0  0  0
    6.5751   -1.6021   -1.4367 C   0  0  0  0  0  0  0  0  0  0  0  0
    8.6964   -2.4710   -0.4397 C   0  0  0  0  0  0  0  0  0  0  0  0
    5.3386    0.5352    2.8714 C   0  0  0  0  0  0  0  0  0  0  0  0
   -7.1455   -0.1798   -0.7454 H   0  0  0  0  0  0  0  0  0  0  0  0
   -6.6984   -1.6792   -1.5755 H   0  0  0  0  0  0  0  0  0  0  0  0
   -4.6937   -2.8441   -0.1048 H   0  0  0  0  0  0  0  0  0  0  0  0
   -3.2948   -1.8087   -0.2174 H   0  0  0  0  0  0  0  0  0  0  0  0
   -6.9963   -2.9778    0.3883 H   0  0  0  0  0  0  0  0  0  0  0  0
   -8.3131   -1.8301    0.3908 H   0  0  0  0  0  0  0  0  0  0  0  0
   -3.4438   -2.2562    2.0797 H   0  0  0  0  0  0  0  0  0  0  0  0
   -4.0470   -0.6171    1.9306 H   0  0  0  0  0  0  0  0  0  0  0  0
   -6.7732   -0.3472    1.9496 H   0  0  0  0  0  0  0  0  0  0  0  0
   -7.6385   -1.7343    2.5892 H   0  0  0  0  0  0  0  0  0  0  0  0
   -5.6414   -3.1781    2.3547 H   0  0  0  0  0  0  0  0  0  0  0  0
   -5.4285   -1.8429    3.4716 H   0  0  0  0  0  0  0  0  0  0  0  0
   -1.5999   -0.1772   -1.9645 H   0  0  0  0  0  0  0  0  0  0  0  0
   -2.3265    2.9186    1.8460 H   0  0  0  0  0  0  0  0  0  0  0  0
   -5.1321    2.7457   -0.0054 H   0  0  0  0  0  0  0  0  0  0  0  0
   -5.2879    1.2585    0.9805 H   0  0  0  0  0  0  0  0  0  0  0  0
   -4.6166    2.7087    1.6664 H   0  0  0  0  0  0  0  0  0  0  0  0
   -0.0949    2.3327    1.2165 H   0  0  0  0  0  0  0  0  0  0  0  0
    0.6781    0.0310   -1.6052 H   0  0  0  0  0  0  0  0  0  0  0  0
    3.0120    0.7920   -1.9915 H   0  0  0  0  0  0  0  0  0  0  0  0
    2.9136   -0.6064   -0.8597 H   0  0  0  0  0  0  0  0  0  0  0  0
    4.7765   -0.7959   -2.2404 H   0  0  0  0  0  0  0  0  0  0  0  0
    8.0663   -0.6531    1.4716 H   0  0  0  0  0  0  0  0  0  0  0  0
    6.7030   -2.2786   -2.2776 H   0  0  0  0  0  0  0  0  0  0  0  0
    8.4708   -3.3981   -0.9775 H   0  0  0  0  0  0  0  0  0  0  0  0
    9.0071   -2.7553    0.5715 H   0  0  0  0  0  0  0  0  0  0  0  0
    9.5339   -1.9723   -0.9373 H   0  0  0  0  0  0  0  0  0  0  0  0
    4.3170    0.2705    2.5808 H   0  0  0  0  0  0  0  0  0  0  0  0
    5.8401   -0.3311    3.3143 H   0  0  0  0  0  0  0  0  0  0  0  0
    5.2940    1.3331    3.6176 H   0  0  0  0  0  0  0  0  0  0  0  0
  1  2  2  0  0  0  0
  1  3  2  0  0  0  0
  1  7  1  0  0  0  0
  1 15  1  0  0  0  0
  4 23  1  0  0  0  0
  4 24  1  0  0  0  0
  5 22  2  0  0  0  0
  6 25  1  0  0  0  0
  6 31  1  0  0  0  0
  7  9  1  0  0  0  0
  7 10  1  0  0  0  0
  8 18  1  0  0  0  0
  8 22  1  0  0  0  0
  8 50  1  0  0  0  0
  9 11  1  0  0  0  0
  9 32  1  0  0  0  0
  9 33  1  0  0  0  0
 10 12  1  0  0  0  0
 10 34  1  0  0  0  0
 10 35  1  0  0  0  0
 11 13  1  0  0  0  0
 11 36  1  0  0  0  0
 11 37  1  0  0  0  0
 12 14  1  0  0  0  0
 12 38  1  0  0  0  0
 12 39  1  0  0  0  0
 13 14  1  0  0  0  0
 13 40  1  0  0  0  0
 13 41  1  0  0  0  0
 14 42  1  0  0  0  0
 14 43  1  0  0  0  0
 15 16  2  0  0  0  0
 15 17  1  0  0  0  0
 16 19  1  0  0  0  0
 16 20  1  0  0  0  0
 17 18  2  0  0  0  0
 17 44  1  0  0  0  0
 18 21  1  0  0  0  0
 19 21  2  0  0  0  0
 19 45  1  0  0  0  0
 20 46  1  0  0  0  0
 20 47  1  0  0  0  0
 20 48  1  0  0  0  0
 21 49  1  0  0  0  0
 22 23  1  0  0  0  0
 23 51  1  0  0  0  0
 23 52  1  0  0  0  0
 24 25  2  0  0  0  0
 24 27  1  0  0  0  0
 25 28  1  0  0  0  0
 26 28  2  0  0  0  0
 26 29  1  0  0  0  0
 26 30  1  0  0  0  0
 27 29  2  0  0  0  0
 27 53  1  0  0  0  0
 28 54  1  0  0  0  0
 29 55  1  0  0  0  0
 30 56  1  0  0  0  0
 30 57  1  0  0  0  0
 30 58  1  0  0  0  0
 31 59  1  0  0  0  0
 31 60  1  0  0  0  0
 31 61  1  0  0  0  0
M  END
> <PUBCHEM_COMPOUND_CID>
17395634

> <PUBCHEM_CONFORMER_RMSD>
1

> <PUBCHEM_CONFORMER_DIVERSEORDER>
2
200
148
57
193
86
59
205
71
62
91
108
96
163
154
198
199
217
133
109
107
10
44
78
170
111
183
146
39
192
97
124
208
12
45
141
149
201
74
159
106
213
182
131
84
77
61
142
42
87
158
60
138
155
156
145
82
128
13
216
117
37
180
50
24
195
184
135
185
122
127
112
134
202
166
144
46
118
16
116
32
209
172
220
101
169
187
104
90
15
129
186
175
221
20
9
218
99
40
136
140
105
98
33
123
27
14
171
8
92
160
34
35
210
137
178
65
114
28
125
219
147
36
110
132
21
75
153
194
95
69
94
207
204
206
165
164
72
126
176
196
174
63
181
190
168
4
167
197
211
100
139
25
214
151
162
47
157
115
49
52
188
51
203
103
31
43
81
191
215
119
85
93
130
54
53
30
80
179
79
189
11
68
48
150
19
58
6
161
102
64
67
56
83
29
66
143
23
26
212
173
5
113
121
177
22
41
55
88
89
1
3
70
18
7
120
76
152
73
38
17

> <PUBCHEM_MMFF94_PARTIAL_CHARGES>
34
1 1.45
10 0.36
15 -0.01
16 -0.14
17 -0.15
18 0.12
19 -0.15
2 -0.65
20 0.14
21 -0.15
22 0.57
23 0.34
24 0.08
25 0.08
26 -0.14
27 -0.15
28 -0.15
29 -0.15
3 -0.65
30 0.14
31 0.28
4 -0.36
44 0.15
45 0.15
49 0.15
5 -0.57
50 0.37
53 0.15
54 0.15
55 0.15
6 -0.36
7 -0.85
8 -0.55
9 0.36

> <PUBCHEM_EFFECTIVE_ROTOR_COUNT>
9.4

> <PUBCHEM_PHARMACOPHORE_FEATURES>
9
1 2 acceptor
1 3 acceptor
1 4 acceptor
1 5 acceptor
1 6 acceptor
1 8 donor
6 15 16 17 18 19 21 rings
6 24 25 26 27 28 29 rings
7 7 9 10 11 12 13 14 rings

> <PUBCHEM_HEAVY_ATOM_COUNT>
31

> <PUBCHEM_ATOM_DEF_STEREO_COUNT>
0

> <PUBCHEM_ATOM_UDEF_STEREO_COUNT>
0

> <PUBCHEM_BOND_DEF_STEREO_COUNT>
0

> <PUBCHEM_BOND_UDEF_STEREO_COUNT>
0

> <PUBCHEM_ISOTOPIC_ATOM_COUNT>
0

> <PUBCHEM_COMPONENT_COUNT>
1

> <PUBCHEM_CACTVS_TAUTO_COUNT>
2

> <PUBCHEM_CONFORMER_ID>
01096FB200000002

> <PUBCHEM_MMFF94_ENERGY>
93.6543

> <PUBCHEM_FEATURE_SELFOVERLAP>
45.702

> <PUBCHEM_SHAPE_FINGERPRINT>
10 15 6050450297044221319
10076449 9 10735868458152169573
12760667 363 18410286979116816931
13627175 4 17632576093694759466
13668630 136 18131353025153957142
13782708 43 18342737408032074200
14211702 104 18338790208659872198
14904525 67 6266604405163072546
15183329 4 15482674580696033114
15352257 5 18201717375221861794
15419008 91 18200054883687196476
15510800 12 18342449340054152666
17686467 74 7709155955865411389
18643901 69 17632854214460253631
19377110 9 15574712500012872412
2026 5 18343019999579839651
20281389 69 8142090857697530860
21792934 111 17821731633199550281
23569943 247 17909550902737138778
3383291 50 18410856538245016674
3663271 9 16081374012133025694
392239 28 16588024606446533560
44249763 50 9439115399859665770
44880168 125 18056748833522549275
484985 159 18343293748700753563
4938544 92 6266896866591772389
504579 68 15698276707838248762
5104073 3 17458901647443595888
531348 171 16199888253198756877
6009941 240 18340770446481917261
999808 66 18409726257534172847

> <PUBCHEM_SHAPE_MULTIPOLES>
602.51
26.03
2.5
2.17
31.34
0.41
-0.53
18.81
-1.97
-2.19
-0.77
-0.77
0.31
3.2

> <PUBCHEM_SHAPE_SELFOVERLAP>
1250.459

> <PUBCHEM_SHAPE_VOLUME>
343.1

> <PUBCHEM_COORDINATE_TYPE>
2
5
10

$$$$

