9249
  -OEChem-06261203323D

 17 19  0     0  0  0  0  0  0999 V2000
   -1.1057   -0.0001   -0.8308 C   0  0  0  0  0  0  0  0  0  0  0  0
   -1.2746    0.0001    0.6825 C   0  0  0  0  0  0  0  0  0  0  0  0
   -0.5619    1.1192   -0.0018 C   0  0  0  0  0  0  0  0  0  0  0  0
   -0.5619   -1.1191   -0.0016 C   0  0  0  0  0  0  0  0  0  0  0  0
    0.9221    1.2562    0.2049 C   0  0  0  0  0  0  0  0  0  0  0  0
    0.9221   -1.2562    0.2048 C   0  0  0  0  0  0  0  0  0  0  0  0
    1.6599    0.0000   -0.2580 C   0  0  0  0  0  0  0  0  0  0  0  0
   -2.0522   -0.0001   -1.3442 H   0  0  0  0  0  0  0  0  0  0  0  0
   -2.3111    0.0001    0.9748 H   0  0  0  0  0  0  0  0  0  0  0  0
   -1.0588    2.0806   -0.0334 H   0  0  0  0  0  0  0  0  0  0  0  0
   -1.0589   -2.0806   -0.0331 H   0  0  0  0  0  0  0  0  0  0  0  0
    1.1197    1.4379    1.2679 H   0  0  0  0  0  0  0  0  0  0  0  0
    1.2970    2.1247   -0.3480 H   0  0  0  0  0  0  0  0  0  0  0  0
    1.2968   -2.1246   -0.3483 H   0  0  0  0  0  0  0  0  0  0  0  0
    1.1198   -1.4381    1.2677 H   0  0  0  0  0  0  0  0  0  0  0  0
    1.7024    0.0001   -1.3552 H   0  0  0  0  0  0  0  0  0  0  0  0
    2.6946    0.0000    0.1005 H   0  0  0  0  0  0  0  0  0  0  0  0
  1  2  1  0  0  0  0
  1  3  1  0  0  0  0
  1  4  1  0  0  0  0
  1  8  1  0  0  0  0
  2  3  1  0  0  0  0
  2  4  1  0  0  0  0
  2  9  1  0  0  0  0
  3  5  1  0  0  0  0
  3 10  1  0  0  0  0
  4  6  1  0  0  0  0
  4 11  1  0  0  0  0
  5  7  1  0  0  0  0
  5 12  1  0  0  0  0
  5 13  1  0  0  0  0
  6  7  1  0  0  0  0
  6 14  1  0  0  0  0
  6 15  1  0  0  0  0
  7 16  1  0  0  0  0
  7 17  1  0  0  0  0
M  END
> <PUBCHEM_COMPOUND_CID>
9249

> <PUBCHEM_CONFORMER_RMSD>
0.4

> <PUBCHEM_CONFORMER_DIVERSEORDER>
1

> <PUBCHEM_MMFF94_PARTIAL_CHARGES>
10
1 -0.1
10 0.1
11 0.1
2 -0.1
3 -0.19
4 -0.19
5 0.09
6 0.09
8 0.1
9 0.1

> <PUBCHEM_EFFECTIVE_ROTOR_COUNT>
0.6

> <PUBCHEM_PHARMACOPHORE_FEATURES>
1
7 1 2 3 4 5 6 7 rings

> <PUBCHEM_HEAVY_ATOM_COUNT>
7

> <PUBCHEM_ATOM_DEF_STEREO_COUNT>
0

> <PUBCHEM_ATOM_UDEF_STEREO_COUNT>
0

> <PUBCHEM_BOND_DEF_STEREO_COUNT>
0

> <PUBCHEM_BOND_UDEF_STEREO_COUNT>
0

> <PUBCHEM_ISOTOPIC_ATOM_COUNT>
0

> <PUBCHEM_COMPONENT_COUNT>
1

> <PUBCHEM_CACTVS_TAUTO_COUNT>
1

> <PUBCHEM_CONFORMER_ID>
0000242100000001

> <PUBCHEM_MMFF94_ENERGY>
18.0212

> <PUBCHEM_FEATURE_SELFOVERLAP>
5.074

> <PUBCHEM_SHAPE_FINGERPRINT>
137420 1 12920513588144803725
20096714 4 18408881866910758744
21040471 1 18411419526789060229
29004967 10 18201146689805025945
5943 1 6037873937011309565

> <PUBCHEM_SHAPE_MULTIPOLES>
144.06
1.75
1.43
0.8
0.34
0
-0.04
0
-0.04
0.21
0.09
-0.17
0
0

> <PUBCHEM_SHAPE_SELFOVERLAP>
308.667

> <PUBCHEM_SHAPE_VOLUME>
81.4

> <PUBCHEM_COORDINATE_TYPE>
2
5
10

$$$$

