10081
  -OEChem-06261204182D

 34 35  0     1  0  0  0  0  0999 V2000
    4.0000   -2.6440    0.0000 S   0  0  0  0  0  0  0  0  0  0  0  0
    2.2679    0.3560    0.0000 O   0  0  0  0  0  0  0  0  0  0  0  0
    5.7321    0.3560    0.0000 O   0  0  0  0  0  0  0  0  0  0  0  0
    3.1340   -1.1440    0.0000 N   0  0  0  0  0  0  0  0  0  0  0  0
    4.8660   -1.1440    0.0000 N   0  0  0  0  0  0  0  0  0  0  0  0
    4.5000    1.2220    0.0000 C   0  0  3  0  0  0  0  0  0  0  0  0
    4.0000    0.3560    0.0000 C   0  0  3  0  0  0  0  0  0  0  0  0
    5.5000    1.2220    0.0000 C   0  0  0  0  0  0  0  0  0  0  0  0
    6.0000    2.0880    0.0000 C   0  0  0  0  0  0  0  0  0  0  0  0
    3.5000    1.2220    0.0000 C   0  0  0  0  0  0  0  0  0  0  0  0
    4.0000    2.0880    0.0000 C   0  0  0  0  0  0  0  0  0  0  0  0
    5.5000    2.9540    0.0000 C   0  0  0  0  0  0  0  0  0  0  0  0
    3.1340   -0.1440    0.0000 C   0  0  0  0  0  0  0  0  0  0  0  0
    4.8660   -0.1440    0.0000 C   0  0  0  0  0  0  0  0  0  0  0  0
    4.5000    2.9540    0.0000 C   0  0  0  0  0  0  0  0  0  0  0  0
    2.5000    1.2220    0.0000 C   0  0  0  0  0  0  0  0  0  0  0  0
    4.0000   -1.6440    0.0000 C   0  0  0  0  0  0  0  0  0  0  0  0
    2.0000    2.0880    0.0000 C   0  0  0  0  0  0  0  0  0  0  0  0
    4.8100    0.6851    0.0000 H   0  0  0  0  0  0  0  0  0  0  0  0
    5.3923    0.6114    0.0000 H   0  0  0  0  0  0  0  0  0  0  0  0
    6.0826    1.0099    0.0000 H   0  0  0  0  0  0  0  0  0  0  0  0
    6.4749    1.6895    0.0000 H   0  0  0  0  0  0  0  0  0  0  0  0
    6.4749    2.4865    0.0000 H   0  0  0  0  0  0  0  0  0  0  0  0
    4.0826    1.4340    0.0000 H   0  0  0  0  0  0  0  0  0  0  0  0
    3.3923    1.8326    0.0000 H   0  0  0  0  0  0  0  0  0  0  0  0
    3.3800    2.0880    0.0000 H   0  0  0  0  0  0  0  0  0  0  0  0
    6.0826    3.1661    0.0000 H   0  0  0  0  0  0  0  0  0  0  0  0
    5.3923    3.5646    0.0000 H   0  0  0  0  0  0  0  0  0  0  0  0
    4.1900    3.4910    0.0000 H   0  0  0  0  0  0  0  0  0  0  0  0
    2.5970   -1.4540    0.0000 H   0  0  0  0  0  0  0  0  0  0  0  0
    2.1900    0.6851    0.0000 H   0  0  0  0  0  0  0  0  0  0  0  0
    2.3100    2.6249    0.0000 H   0  0  0  0  0  0  0  0  0  0  0  0
    1.3800    2.0880    0.0000 H   0  0  0  0  0  0  0  0  0  0  0  0
    4.5369   -2.9540    0.0000 H   0  0  0  0  0  0  0  0  0  0  0  0
  1 17  1  0  0  0  0
  1 34  1  0  0  0  0
  2 13  2  0  0  0  0
  3 14  2  0  0  0  0
  4 13  1  0  0  0  0
  4 17  1  0  0  0  0
  4 30  1  0  0  0  0
  5 14  1  0  0  0  0
  5 17  2  0  0  0  0
  6  7  1  0  0  0  0
  6  8  1  0  0  0  0
  6 11  1  0  0  0  0
  6 19  1  0  0  0  0
  7 10  1  0  0  0  0
  7 13  1  0  0  0  0
  7 14  1  0  0  0  0
  8  9  1  0  0  0  0
  8 20  1  0  0  0  0
  8 21  1  0  0  0  0
  9 12  1  0  0  0  0
  9 22  1  0  0  0  0
  9 23  1  0  0  0  0
 10 16  1  0  0  0  0
 10 24  1  0  0  0  0
 10 25  1  0  0  0  0
 11 15  2  0  0  0  0
 11 26  1  0  0  0  0
 12 15  1  0  0  0  0
 12 27  1  0  0  0  0
 12 28  1  0  0  0  0
 15 29  1  0  0  0  0
 16 18  2  0  0  0  0
 16 31  1  0  0  0  0
 18 32  1  0  0  0  0
 18 33  1  0  0  0  0
M  END
> <PUBCHEM_COMPOUND_CID>
10081

> <PUBCHEM_COMPOUND_CANONICALIZED>
1

> <PUBCHEM_CACTVS_COMPLEXITY>
456

> <PUBCHEM_CACTVS_HBOND_ACCEPTOR>
3

> <PUBCHEM_CACTVS_HBOND_DONOR>
2

> <PUBCHEM_CACTVS_ROTATABLE_BOND>
3

> <PUBCHEM_CACTVS_SUBSKEYS>
AAADceBzMABAAAAAAAAAAAAAAAAAAAAAAAAgQAAAAAAAAAAAAAAAHgQQAAAADwCBgAABAALAAASoACFSNAAAEAEgAAAJCAEAAAgAABoIyQAEAAAAgAAIAAMYiMCPgAAAAAAAAAAAAAAAAAAAAAAAAAAAAA==

> <PUBCHEM_IUPAC_OPENEYE_NAME>
5-allyl-5-cyclohex-2-en-1-yl-2-sulfanyl-1H-pyrimidine-4,6-dione

> <PUBCHEM_IUPAC_CAS_NAME>
5-(1-cyclohex-2-enyl)-2-mercapto-5-prop-2-enyl-1H-pyrimidine-4,6-dione

> <PUBCHEM_IUPAC_NAME>
5-cyclohex-2-en-1-yl-5-prop-2-enyl-2-sulfanyl-1H-pyrimidine-4,6-dione

> <PUBCHEM_IUPAC_SYSTEMATIC_NAME>
5-cyclohex-2-en-1-yl-5-prop-2-enyl-2-sulfanyl-1H-pyrimidine-4,6-dione

> <PUBCHEM_IUPAC_TRADITIONAL_NAME>
5-allyl-5-cyclohex-2-en-1-yl-2-mercapto-1H-pyrimidine-4,6-quinone

> <PUBCHEM_IUPAC_INCHI>
InChI=1S/C13H16N2O2S/c1-2-8-13(9-6-4-3-5-7-9)10(16)14-12(18)15-11(13)17/h2,4,6,9H,1,3,5,7-8H2,(H2,14,15,16,17,18)

> <PUBCHEM_IUPAC_INCHIKEY>
PXLVRFQEBVNJOH-UHFFFAOYSA-N

> <PUBCHEM_XLOGP3_AA>
2.7

> <PUBCHEM_EXACT_MASS>
264.093249

> <PUBCHEM_MOLECULAR_FORMULA>
C13H16N2O2S

> <PUBCHEM_MOLECULAR_WEIGHT>
264.34334

> <PUBCHEM_OPENEYE_CAN_SMILES>
C=CCC1(C(=O)NC(=NC1=O)S)C2CCCC=C2

> <PUBCHEM_OPENEYE_ISO_SMILES>
C=CCC1(C(=O)NC(=NC1=O)S)C2CCCC=C2

> <PUBCHEM_CACTVS_TPSA>
59.5

> <PUBCHEM_MONOISOTOPIC_WEIGHT>
264.093249

> <PUBCHEM_TOTAL_CHARGE>
0

> <PUBCHEM_HEAVY_ATOM_COUNT>
18

> <PUBCHEM_ATOM_DEF_STEREO_COUNT>
0

> <PUBCHEM_ATOM_UDEF_STEREO_COUNT>
2

> <PUBCHEM_BOND_DEF_STEREO_COUNT>
0

> <PUBCHEM_BOND_UDEF_STEREO_COUNT>
0

> <PUBCHEM_ISOTOPIC_ATOM_COUNT>
0

> <PUBCHEM_COMPONENT_COUNT>
1

> <PUBCHEM_CACTVS_TAUTO_COUNT>
5

> <PUBCHEM_COORDINATE_TYPE>
1
5
255

> <PUBCHEM_BONDANNOTATIONS>
6  19  3
7  10  3

$$$$

