4391
  -OEChem-06261200052D

 33 33  0     0  0  0  0  0  0999 V2000
    4.2690    0.0000    0.0000 S   0  0  0  0  0  0  0  0  0  0  0  0
    5.2690    0.0000    0.0000 O   0  0  0  0  0  0  0  0  0  0  0  0
    3.2690    0.0000    0.0000 O   0  0  0  0  0  0  0  0  0  0  0  0
    6.0010    3.0000    0.0000 O   0  0  0  0  0  0  0  0  0  0  0  0
    2.5369    3.0000    0.0000 O   0  0  0  0  0  0  0  0  0  0  0  0
    4.2690    1.0000    0.0000 N   0  0  0  0  0  0  0  0  0  0  0  0
    2.5369   -3.0000    0.0000 N   0  0  0  0  0  0  0  0  0  0  0  0
    5.1350    1.5000    0.0000 C   0  0  0  0  0  0  0  0  0  0  0  0
    3.4030    1.5000    0.0000 C   0  0  0  0  0  0  0  0  0  0  0  0
    4.2690   -1.0000    0.0000 C   0  0  0  0  0  0  0  0  0  0  0  0
    5.1350    2.5000    0.0000 C   0  0  0  0  0  0  0  0  0  0  0  0
    3.4030    2.5000    0.0000 C   0  0  0  0  0  0  0  0  0  0  0  0
    3.4030   -1.5000    0.0000 C   0  0  0  0  0  0  0  0  0  0  0  0
    5.1350   -1.5000    0.0000 C   0  0  0  0  0  0  0  0  0  0  0  0
    3.4030   -2.5000    0.0000 C   0  0  0  0  0  0  0  0  0  0  0  0
    5.1350   -2.5000    0.0000 C   0  0  0  0  0  0  0  0  0  0  0  0
    4.2690   -3.0000    0.0000 C   0  0  0  0  0  0  0  0  0  0  0  0
    5.3471    0.9174    0.0000 H   0  0  0  0  0  0  0  0  0  0  0  0
    5.7456    1.6077    0.0000 H   0  0  0  0  0  0  0  0  0  0  0  0
    2.7924    1.6077    0.0000 H   0  0  0  0  0  0  0  0  0  0  0  0
    3.1909    0.9174    0.0000 H   0  0  0  0  0  0  0  0  0  0  0  0
    4.9230    3.0826    0.0000 H   0  0  0  0  0  0  0  0  0  0  0  0
    4.5244    2.3923    0.0000 H   0  0  0  0  0  0  0  0  0  0  0  0
    4.0135    2.3923    0.0000 H   0  0  0  0  0  0  0  0  0  0  0  0
    3.6150    3.0826    0.0000 H   0  0  0  0  0  0  0  0  0  0  0  0
    2.8660   -1.1900    0.0000 H   0  0  0  0  0  0  0  0  0  0  0  0
    5.6720   -1.1900    0.0000 H   0  0  0  0  0  0  0  0  0  0  0  0
    5.6720   -2.8100    0.0000 H   0  0  0  0  0  0  0  0  0  0  0  0
    4.2690   -3.6200    0.0000 H   0  0  0  0  0  0  0  0  0  0  0  0
    2.5369    3.6200    0.0000 H   0  0  0  0  0  0  0  0  0  0  0  0
    6.0010    3.6200    0.0000 H   0  0  0  0  0  0  0  0  0  0  0  0
    2.5369   -3.6200    0.0000 H   0  0  0  0  0  0  0  0  0  0  0  0
    2.0000   -2.6900    0.0000 H   0  0  0  0  0  0  0  0  0  0  0  0
  1  2  2  0  0  0  0
  1  3  2  0  0  0  0
  1  6  1  0  0  0  0
  1 10  1  0  0  0  0
  4 11  1  0  0  0  0
  4 31  1  0  0  0  0
  5 12  1  0  0  0  0
  5 30  1  0  0  0  0
  6  8  1  0  0  0  0
  6  9  1  0  0  0  0
  7 15  1  0  0  0  0
  7 32  1  0  0  0  0
  7 33  1  0  0  0  0
  8 11  1  0  0  0  0
  8 18  1  0  0  0  0
  8 19  1  0  0  0  0
  9 12  1  0  0  0  0
  9 20  1  0  0  0  0
  9 21  1  0  0  0  0
 10 13  1  0  0  0  0
 10 14  2  0  0  0  0
 11 22  1  0  0  0  0
 11 23  1  0  0  0  0
 12 24  1  0  0  0  0
 12 25  1  0  0  0  0
 13 15  2  0  0  0  0
 13 26  1  0  0  0  0
 14 16  1  0  0  0  0
 14 27  1  0  0  0  0
 15 17  1  0  0  0  0
 16 17  2  0  0  0  0
 16 28  1  0  0  0  0
 17 29  1  0  0  0  0
M  END
> <PUBCHEM_COMPOUND_CID>
4391

> <PUBCHEM_COMPOUND_CANONICALIZED>
1

> <PUBCHEM_CACTVS_COMPLEXITY>
309

> <PUBCHEM_CACTVS_HBOND_ACCEPTOR>
6

> <PUBCHEM_CACTVS_HBOND_DONOR>
3

> <PUBCHEM_CACTVS_ROTATABLE_BOND>
6

> <PUBCHEM_CACTVS_SUBSKEYS>
AAADceBzOABAAAAAAAAAAAAAAAAAAAAAAAAwAAAAAAAAAAABAAAAHgQQSAAACAjh0AYwwYJAAgKAACRCQHDCABAgAgAIiBgIZIgKMCKAkZGAIARgkACYyAcQAAAAAAAAACAAAAAAAAAAQAAAAAAAAAAAAA==

> <PUBCHEM_IUPAC_OPENEYE_NAME>
3-amino-N,N-bis(2-hydroxyethyl)benzenesulfonamide

> <PUBCHEM_IUPAC_CAS_NAME>
3-amino-N,N-bis(2-hydroxyethyl)benzenesulfonamide

> <PUBCHEM_IUPAC_NAME>
3-amino-N,N-bis(2-hydroxyethyl)benzenesulfonamide

> <PUBCHEM_IUPAC_SYSTEMATIC_NAME>
3-azanyl-N,N-bis(2-hydroxyethyl)benzenesulfonamide

> <PUBCHEM_IUPAC_TRADITIONAL_NAME>
3-amino-N,N-bis(2-hydroxyethyl)benzenesulfonamide

> <PUBCHEM_IUPAC_INCHI>
InChI=1S/C10H16N2O4S/c11-9-2-1-3-10(8-9)17(15,16)12(4-6-13)5-7-14/h1-3,8,13-14H,4-7,11H2

> <PUBCHEM_IUPAC_INCHIKEY>
LHDUDYKYYNDASR-UHFFFAOYSA-N

> <PUBCHEM_XLOGP3_AA>
-1

> <PUBCHEM_EXACT_MASS>
260.083078

> <PUBCHEM_MOLECULAR_FORMULA>
C10H16N2O4S

> <PUBCHEM_MOLECULAR_WEIGHT>
260.31004

> <PUBCHEM_OPENEYE_CAN_SMILES>
C1=CC(=CC(=C1)S(=O)(=O)N(CCO)CCO)N

> <PUBCHEM_OPENEYE_ISO_SMILES>
C1=CC(=CC(=C1)S(=O)(=O)N(CCO)CCO)N

> <PUBCHEM_CACTVS_TPSA>
112

> <PUBCHEM_MONOISOTOPIC_WEIGHT>
260.083078

> <PUBCHEM_TOTAL_CHARGE>
0

> <PUBCHEM_HEAVY_ATOM_COUNT>
17

> <PUBCHEM_ATOM_DEF_STEREO_COUNT>
0

> <PUBCHEM_ATOM_UDEF_STEREO_COUNT>
0

> <PUBCHEM_BOND_DEF_STEREO_COUNT>
0

> <PUBCHEM_BOND_UDEF_STEREO_COUNT>
0

> <PUBCHEM_ISOTOPIC_ATOM_COUNT>
0

> <PUBCHEM_COMPONENT_COUNT>
1

> <PUBCHEM_CACTVS_TAUTO_COUNT>
1

> <PUBCHEM_COORDINATE_TYPE>
1
5
255

> <PUBCHEM_BONDANNOTATIONS>
10  13  8
10  14  8
13  15  8
14  16  8
15  17  8
16  17  8

$$$$

