854334
  -OEChem-06241222483D

 30 31  0     1  0  0  0  0  0999 V2000
    1.6065    1.8184   -1.2393 S   0  0  0  0  0  0  0  0  0  0  0  0
    5.2366   -0.7344    0.0109 O   0  0  0  0  0  0  0  0  0  0  0  0
    3.5190   -1.9940    0.8228 O   0  0  0  0  0  0  0  0  0  0  0  0
   -4.5256   -0.2374   -0.0596 O   0  0  0  0  0  0  0  0  0  0  0  0
   -2.6398   -1.5387   -1.6333 O   0  0  0  0  0  0  0  0  0  0  0  0
    1.8038    0.0242    0.7228 N   0  0  0  0  0  0  0  0  0  0  0  0
    0.9526    1.1558    0.3302 C   0  0  2  0  0  0  0  0  0  0  0  0
    3.1613    0.3255    0.2662 C   0  0  2  0  0  0  0  0  0  0  0  0
    3.0739    0.7633   -1.1894 C   0  0  0  0  0  0  0  0  0  0  0  0
   -0.5071    0.7814    0.2242 C   0  0  0  0  0  0  0  0  0  0  0  0
    3.9553   -0.9310    0.4068 C   0  0  0  0  0  0  0  0  0  0  0  0
   -0.9121   -0.2170   -0.6644 C   0  0  0  0  0  0  0  0  0  0  0  0
   -1.4570    1.4332    1.0138 C   0  0  0  0  0  0  0  0  0  0  0  0
   -2.2600   -0.5620   -0.7629 C   0  0  0  0  0  0  0  0  0  0  0  0
   -2.8049    1.0884    0.9154 C   0  0  0  0  0  0  0  0  0  0  0  0
   -3.2064    0.0907    0.0271 C   0  0  0  0  0  0  0  0  0  0  0  0
   -4.9961   -1.2664    0.8088 C   0  0  0  0  0  0  0  0  0  0  0  0
    1.0777    1.9548    1.0714 H   0  0  0  0  0  0  0  0  0  0  0  0
    3.6074    1.1002    0.9031 H   0  0  0  0  0  0  0  0  0  0  0  0
    3.9593    1.3251   -1.5014 H   0  0  0  0  0  0  0  0  0  0  0  0
    2.9369   -0.0806   -1.8742 H   0  0  0  0  0  0  0  0  0  0  0  0
    1.7793   -0.1040    1.7335 H   0  0  0  0  0  0  0  0  0  0  0  0
   -0.1860   -0.7393   -1.2832 H   0  0  0  0  0  0  0  0  0  0  0  0
   -1.1602    2.2128    1.7105 H   0  0  0  0  0  0  0  0  0  0  0  0
   -3.5369    1.6015    1.5333 H   0  0  0  0  0  0  0  0  0  0  0  0
    5.7757   -1.5494    0.0962 H   0  0  0  0  0  0  0  0  0  0  0  0
   -3.6084   -1.6215   -1.6017 H   0  0  0  0  0  0  0  0  0  0  0  0
   -4.8982   -0.9572    1.8543 H   0  0  0  0  0  0  0  0  0  0  0  0
   -4.4475   -2.1986    0.6406 H   0  0  0  0  0  0  0  0  0  0  0  0
   -6.0539   -1.4396    0.5930 H   0  0  0  0  0  0  0  0  0  0  0  0
  1  7  1  0  0  0  0
  1  9  1  0  0  0  0
  2 11  1  0  0  0  0
  2 26  1  0  0  0  0
  3 11  2  0  0  0  0
  4 16  1  0  0  0  0
  4 17  1  0  0  0  0
  5 14  1  0  0  0  0
  5 27  1  0  0  0  0
  6  7  1  0  0  0  0
  6  8  1  0  0  0  0
  6 22  1  0  0  0  0
  7 10  1  0  0  0  0
  7 18  1  0  0  0  0
  8  9  1  0  0  0  0
  8 11  1  0  0  0  0
  8 19  1  0  0  0  0
  9 20  1  0  0  0  0
  9 21  1  0  0  0  0
 10 12  2  0  0  0  0
 10 13  1  0  0  0  0
 12 14  1  0  0  0  0
 12 23  1  0  0  0  0
 13 15  2  0  0  0  0
 13 24  1  0  0  0  0
 14 16  2  0  0  0  0
 15 16  1  0  0  0  0
 15 25  1  0  0  0  0
 17 28  1  0  0  0  0
 17 29  1  0  0  0  0
 17 30  1  0  0  0  0
M  END
> <PUBCHEM_COMPOUND_CID>
854334

> <PUBCHEM_CONFORMER_RMSD>
0.6

> <PUBCHEM_CONFORMER_DIVERSEORDER>
1
21
31
6
17
27
12
35
4
30
14
15
22
5
13
23
32
2
18
10
28
7
20
9
26
36
3
34
16
19
8
29
11
24
25
33

> <PUBCHEM_MMFF94_PARTIAL_CHARGES>
23
1 -0.46
10 -0.14
11 0.66
12 -0.15
13 -0.15
14 0.08
15 -0.15
16 0.08
17 0.28
2 -0.65
22 0.36
23 0.15
24 0.15
25 0.15
26 0.5
27 0.45
3 -0.57
4 -0.36
5 -0.53
6 -0.9
7 0.64
8 0.33
9 0.23

> <PUBCHEM_EFFECTIVE_ROTOR_COUNT>
4

> <PUBCHEM_PHARMACOPHORE_FEATURES>
9
1 2 acceptor
1 3 acceptor
1 4 acceptor
1 5 donor
1 6 cation
1 6 donor
3 2 3 11 anion
5 1 6 7 8 9 rings
6 10 12 13 14 15 16 rings

> <PUBCHEM_HEAVY_ATOM_COUNT>
17

> <PUBCHEM_ATOM_DEF_STEREO_COUNT>
2

> <PUBCHEM_ATOM_UDEF_STEREO_COUNT>
0

> <PUBCHEM_BOND_DEF_STEREO_COUNT>
0

> <PUBCHEM_BOND_UDEF_STEREO_COUNT>
0

> <PUBCHEM_ISOTOPIC_ATOM_COUNT>
0

> <PUBCHEM_COMPONENT_COUNT>
1

> <PUBCHEM_CACTVS_TAUTO_COUNT>
3

> <PUBCHEM_CONFORMER_ID>
000D093E00000001

> <PUBCHEM_MMFF94_ENERGY>
45.4213

> <PUBCHEM_FEATURE_SELFOVERLAP>
45.725

> <PUBCHEM_SHAPE_FINGERPRINT>
10062212 137 18335422383005412375
11132069 177 16732697247244543869
11578080 2 18266204827376559704
12236239 1 18410569591737770820
12633257 1 16443068274521149299
12670546 177 16415187945538702898
12916754 54 18059853944178576373
13167823 11 18408321107633349080
13581323 91 17894909641684755760
13675066 3 18408891719824374169
13690532 89 18413669110531450713
13862211 1 17822577114891739999
14576447 43 18201717366937505562
15375358 24 15502372339802389909
15375462 189 18334581221928685162
15477762 27 18060136548873863712
15848702 151 17489867107749342685
16945 1 17603860079739953965
17804303 29 17822010925551795504
1813 80 18271515511840669380
18186145 218 16343709824024663501
19049666 15 15503478530157169128
193927 3 18340192055450913162
19422 9 18342450456708395161
19784866 240 18272083920075173974
200 152 18202845456655280849
20279233 1 16008745809925006356
20361792 2 18130793386356849724
20645477 70 17632295657878347028
21267235 1 18336256907972850922
2255824 54 18269549460459717852
22646028 28 18411419518330877594
22854114 59 4823213918043896016
22959321 94 17967813834074819181
231179 274 7709462723250107874
232386 152 18040719151672870484
23402539 116 17917434293522236056
23557571 272 16371270199761590832
23559900 14 18130506319016312601
23598291 2 18270100422790261236
296302 2 7204776986275302301
312423 11 18339907269065219968
351380 3 18409449198026656298
4072396 5 17894624877617307413
42 15 18260265256756010033
465052 167 18265321825587478723
474 4 17982443802988618236
4990 188 16702025257611348961
5104073 3 18260545632295174209
5281201 14 16845857883930749108
573450 72 18114181964494330417
5902787 121 17459195096557129641
77492 1 18410004429718079508

> <PUBCHEM_SHAPE_MULTIPOLES>
325.24
9.52
1.7
1.22
0.11
0.11
0.29
4.85
-0.92
0.69
0
-0.32
-0.05
-1.18

> <PUBCHEM_SHAPE_SELFOVERLAP>
672.565

> <PUBCHEM_SHAPE_VOLUME>
188.4

> <PUBCHEM_COORDINATE_TYPE>
2
5
10

$$$$

