13188
  -OEChem-06261207522D

 23 22  0     0  0  0  0  0  0999 V2000
    9.4651    0.7500    0.0000 Cl  0  0  0  0  0  0  0  0  0  0  0  0
    2.5369    0.7500    0.0000 O   0  0  0  0  0  0  0  0  0  0  0  0
    3.4030   -0.7500    0.0000 O   0  0  0  0  0  0  0  0  0  0  0  0
    6.0010    0.7500    0.0000 C   0  0  0  0  0  0  0  0  0  0  0  0
    6.8671    0.2500    0.0000 C   0  0  0  0  0  0  0  0  0  0  0  0
    5.1350    0.2500    0.0000 C   0  0  0  0  0  0  0  0  0  0  0  0
    7.7331    0.7500    0.0000 C   0  0  0  0  0  0  0  0  0  0  0  0
    4.2690    0.7500    0.0000 C   0  0  0  0  0  0  0  0  0  0  0  0
    8.5991    0.2500    0.0000 C   0  0  0  0  0  0  0  0  0  0  0  0
    3.4030    0.2500    0.0000 C   0  0  0  0  0  0  0  0  0  0  0  0
    6.3996    1.2250    0.0000 H   0  0  0  0  0  0  0  0  0  0  0  0
    5.6025    1.2250    0.0000 H   0  0  0  0  0  0  0  0  0  0  0  0
    6.4685   -0.2249    0.0000 H   0  0  0  0  0  0  0  0  0  0  0  0
    7.2656   -0.2249    0.0000 H   0  0  0  0  0  0  0  0  0  0  0  0
    4.7365   -0.2249    0.0000 H   0  0  0  0  0  0  0  0  0  0  0  0
    5.5335   -0.2249    0.0000 H   0  0  0  0  0  0  0  0  0  0  0  0
    8.1316    1.2250    0.0000 H   0  0  0  0  0  0  0  0  0  0  0  0
    7.3346    1.2250    0.0000 H   0  0  0  0  0  0  0  0  0  0  0  0
    4.6675    1.2250    0.0000 H   0  0  0  0  0  0  0  0  0  0  0  0
    3.8705    1.2250    0.0000 H   0  0  0  0  0  0  0  0  0  0  0  0
    8.2006   -0.2249    0.0000 H   0  0  0  0  0  0  0  0  0  0  0  0
    8.9976   -0.2249    0.0000 H   0  0  0  0  0  0  0  0  0  0  0  0
    2.0000    0.4400    0.0000 H   0  0  0  0  0  0  0  0  0  0  0  0
  1  9  1  0  0  0  0
  2 10  1  0  0  0  0
  2 23  1  0  0  0  0
  3 10  2  0  0  0  0
  4  5  1  0  0  0  0
  4  6  1  0  0  0  0
  4 11  1  0  0  0  0
  4 12  1  0  0  0  0
  5  7  1  0  0  0  0
  5 13  1  0  0  0  0
  5 14  1  0  0  0  0
  6  8  1  0  0  0  0
  6 15  1  0  0  0  0
  6 16  1  0  0  0  0
  7  9  1  0  0  0  0
  7 17  1  0  0  0  0
  7 18  1  0  0  0  0
  8 10  1  0  0  0  0
  8 19  1  0  0  0  0
  8 20  1  0  0  0  0
  9 21  1  0  0  0  0
  9 22  1  0  0  0  0
M  END
> <PUBCHEM_COMPOUND_CID>
13188

> <PUBCHEM_COMPOUND_CANONICALIZED>
1

> <PUBCHEM_CACTVS_COMPLEXITY>
93.6

> <PUBCHEM_CACTVS_HBOND_ACCEPTOR>
2

> <PUBCHEM_CACTVS_HBOND_DONOR>
1

> <PUBCHEM_CACTVS_ROTATABLE_BOND>
6

> <PUBCHEM_CACTVS_SUBSKEYS>
AAADccBgMAAEAAAAAAAAAAAAAAAAAAAAAAAAAAAAAAAAAAAAAAAAGgIACAAACAOAgEAACAAAAgAIAACQCAAAAAAAAAAAAAEAAgAAABIBAAAAQAAEAAAAAAGIyCCAAAAAAAAAAAAAAAAAAAAAAAAAAAAAAA==

> <PUBCHEM_IUPAC_OPENEYE_NAME>
7-chloroheptanoic acid

> <PUBCHEM_IUPAC_CAS_NAME>
7-chloroheptanoic acid

> <PUBCHEM_IUPAC_NAME>
7-chloroheptanoic acid

> <PUBCHEM_IUPAC_SYSTEMATIC_NAME>
7-chloranylheptanoic acid

> <PUBCHEM_IUPAC_TRADITIONAL_NAME>
7-chloroenanthic acid

> <PUBCHEM_IUPAC_INCHI>
InChI=1S/C7H13ClO2/c8-6-4-2-1-3-5-7(9)10/h1-6H2,(H,9,10)

> <PUBCHEM_IUPAC_INCHIKEY>
IGNBKLCFKTYIRI-UHFFFAOYSA-N

> <PUBCHEM_XLOGP3>
0.8

> <PUBCHEM_EXACT_MASS>
164.060407

> <PUBCHEM_MOLECULAR_FORMULA>
C7H13ClO2

> <PUBCHEM_MOLECULAR_WEIGHT>
164.62992

> <PUBCHEM_OPENEYE_CAN_SMILES>
C(CCCCl)CCC(=O)O

> <PUBCHEM_OPENEYE_ISO_SMILES>
C(CCCCl)CCC(=O)O

> <PUBCHEM_CACTVS_TPSA>
37.3

> <PUBCHEM_MONOISOTOPIC_WEIGHT>
164.060407

> <PUBCHEM_TOTAL_CHARGE>
0

> <PUBCHEM_HEAVY_ATOM_COUNT>
10

> <PUBCHEM_ATOM_DEF_STEREO_COUNT>
0

> <PUBCHEM_ATOM_UDEF_STEREO_COUNT>
0

> <PUBCHEM_BOND_DEF_STEREO_COUNT>
0

> <PUBCHEM_BOND_UDEF_STEREO_COUNT>
0

> <PUBCHEM_ISOTOPIC_ATOM_COUNT>
0

> <PUBCHEM_COMPONENT_COUNT>
1

> <PUBCHEM_CACTVS_TAUTO_COUNT>
1

> <PUBCHEM_COORDINATE_TYPE>
1
5
255

$$$$

