7040
  -OEChem-06261201413D

 19 19  0     0  0  0  0  0  0999 V2000
    3.2239    1.4658    1.1765 O   0  0  0  0  0  0  0  0  0  0  0  0
   -3.2238    1.4660    1.1767 O   0  0  0  0  0  0  0  0  0  0  0  0
    2.4314    0.1777   -0.6287 N   0  0  0  0  0  0  0  0  0  0  0  0
   -2.4315    0.1779   -0.6288 N   0  0  0  0  0  0  0  0  0  0  0  0
    0.0000    0.1922   -0.6350 C   0  0  0  0  0  0  0  0  0  0  0  0
    1.2079   -0.4449   -0.3507 C   0  0  0  0  0  0  0  0  0  0  0  0
   -1.2082   -0.4447   -0.3511 C   0  0  0  0  0  0  0  0  0  0  0  0
    0.0007    1.5589   -1.2447 C   0  0  0  0  0  0  0  0  0  0  0  0
    1.2078   -1.7188    0.2175 C   0  0  0  0  0  0  0  0  0  0  0  0
   -1.2081   -1.7188    0.2170 C   0  0  0  0  0  0  0  0  0  0  0  0
   -0.0002   -2.3557    0.5014 C   0  0  0  0  0  0  0  0  0  0  0  0
    2.8274    0.8220    0.2750 C   0  0  0  0  0  0  0  0  0  0  0  0
   -2.8274    0.8223    0.2749 C   0  0  0  0  0  0  0  0  0  0  0  0
   -0.8698    1.7214   -1.8891 H   0  0  0  0  0  0  0  0  0  0  0  0
    0.0027    2.3216   -0.4593 H   0  0  0  0  0  0  0  0  0  0  0  0
    0.8695    1.7192   -1.8918 H   0  0  0  0  0  0  0  0  0  0  0  0
    2.1423   -2.2270    0.4413 H   0  0  0  0  0  0  0  0  0  0  0  0
   -2.1427   -2.2270    0.4407 H   0  0  0  0  0  0  0  0  0  0  0  0
   -0.0003   -3.3481    0.9427 H   0  0  0  0  0  0  0  0  0  0  0  0
  1 12  2  0  0  0  0
  2 13  2  0  0  0  0
  3  6  1  0  0  0  0
  3 12  2  0  0  0  0
  4  7  1  0  0  0  0
  4 13  2  0  0  0  0
  5  6  2  0  0  0  0
  5  7  1  0  0  0  0
  5  8  1  0  0  0  0
  6  9  1  0  0  0  0
  7 10  2  0  0  0  0
  8 14  1  0  0  0  0
  8 15  1  0  0  0  0
  8 16  1  0  0  0  0
  9 11  2  0  0  0  0
  9 17  1  0  0  0  0
 10 11  1  0  0  0  0
 10 18  1  0  0  0  0
 11 19  1  0  0  0  0
M  END
> <PUBCHEM_COMPOUND_CID>
7040

> <PUBCHEM_CONFORMER_RMSD>
0.6

> <PUBCHEM_CONFORMER_DIVERSEORDER>
1
6
3
2
5
4

> <PUBCHEM_MMFF94_PARTIAL_CHARGES>
16
1 -0.49
10 -0.15
11 -0.15
12 0.79
13 0.79
17 0.15
18 0.15
19 0.15
2 -0.49
3 -0.48
4 -0.48
5 -0.14
6 0.18
7 0.18
8 0.14
9 -0.15

> <PUBCHEM_EFFECTIVE_ROTOR_COUNT>
2

> <PUBCHEM_PHARMACOPHORE_FEATURES>
3
1 3 acceptor
1 4 acceptor
6 5 6 7 9 10 11 rings

> <PUBCHEM_HEAVY_ATOM_COUNT>
13

> <PUBCHEM_ATOM_DEF_STEREO_COUNT>
0

> <PUBCHEM_ATOM_UDEF_STEREO_COUNT>
0

> <PUBCHEM_BOND_DEF_STEREO_COUNT>
0

> <PUBCHEM_BOND_UDEF_STEREO_COUNT>
0

> <PUBCHEM_ISOTOPIC_ATOM_COUNT>
0

> <PUBCHEM_COMPONENT_COUNT>
1

> <PUBCHEM_CACTVS_TAUTO_COUNT>
1

> <PUBCHEM_CONFORMER_ID>
00001B8000000001

> <PUBCHEM_MMFF94_ENERGY>
34.5109

> <PUBCHEM_FEATURE_SELFOVERLAP>
15.223

> <PUBCHEM_SHAPE_FINGERPRINT>
10857977 72 17202750614143696637
12202030 40 13038362306674382520
12382932 28 18272937102443635504
12423570 1 8193143136785550039
12491281 212 17604137194739153953
13172582 1 18059856138410830148
13839132 238 18187642470902456518
15775835 57 18188201117499393329
161256 15 17983008144014765887
16945 1 18060419114123427982
20510252 161 18049159973453086130
20653085 51 17458332057307074567
21040471 1 18271802402275651014
21524375 3 18408328786797724806
2334 1 18271806791579551822
23419403 2 12911958485495241534
23493267 7 16558179557110761836
2748010 2 18272081712515277247
276578 36 18340192094110555691
305870 269 18340209699186770353
53812653 166 18411973693835041638
7364860 26 18117841229344028438
81228 2 17983292629837793538
90316 7 17701569254173640868

> <PUBCHEM_SHAPE_MULTIPOLES>
245.83
4.41
2.16
1.02
0
0.96
-0.09
-2.69
-1.63
0
-0.3
0
-0.45
0

> <PUBCHEM_SHAPE_SELFOVERLAP>
525.368

> <PUBCHEM_SHAPE_VOLUME>
134.4

> <PUBCHEM_COORDINATE_TYPE>
2
5
10

$$$$

