5644
  -OEChem-06261200473D

 41 42  0     1  0  0  0  0  0999 V2000
    3.4407   -1.2575   -1.0674 P   0  0  2  0  0  0  0  0  0  0  0  0
    2.8863    1.4939   -0.0528 P   0  0  1  0  0  0  0  0  0  0  0  0
    0.9127    3.4246    1.0150 P   0  0  1  0  0  0  0  0  0  0  0  0
   -0.0360   -1.2961   -0.0756 O   0  0  0  0  0  0  0  0  0  0  0  0
   -0.8110   -4.6177    1.0132 O   0  0  0  0  0  0  0  0  0  0  0  0
   -2.3253   -2.3184    2.4517 O   0  0  0  0  0  0  0  0  0  0  0  0
    2.3063   -2.4289   -1.1916 O   0  0  0  0  0  0  0  0  0  0  0  0
   -2.9944    0.8894    1.7498 O   0  0  0  0  0  0  0  0  0  0  0  0
    2.5263   -0.0429   -0.4691 O   0  0  0  0  0  0  0  0  0  0  0  0
    3.9081   -0.8659   -2.4529 O   0  5  0  0  0  0  0  0  0  0  0  0
    4.4389   -1.6750   -0.0095 O   0  0  0  0  0  0  0  0  0  0  0  0
   -4.7827    1.7340   -2.4135 O   0  0  0  0  0  0  0  0  0  0  0  0
    1.4094    1.9832    0.4372 O   0  0  0  0  0  0  0  0  0  0  0  0
    3.8133    1.4733    1.1423 O   0  5  0  0  0  0  0  0  0  0  0  0
    3.2528    2.2542   -1.3083 O   0  0  0  0  0  0  0  0  0  0  0  0
   -0.6621    3.0638    1.2519 O   0  0  0  0  0  0  0  0  0  0  0  0
    1.5588    3.6643    2.3613 O   0  5  0  0  0  0  0  0  0  0  0  0
    1.0087    4.4549   -0.0882 O   0  0  0  0  0  0  0  0  0  0  0  0
   -2.1505   -0.2990   -0.0763 N   0  0  0  0  0  0  0  0  0  0  0  0
   -3.8842    1.3081   -0.3242 N   0  0  0  0  0  0  0  0  0  0  0  0
   -0.5097   -3.2437    1.1615 C   0  0  2  0  0  0  0  0  0  0  0  0
   -1.7550   -2.3859    1.1574 C   0  0  2  0  0  0  0  0  0  0  0  0
    0.2239   -2.7087   -0.0552 C   0  0  2  0  0  0  0  0  0  0  0  0
   -1.2077   -1.0378    0.7149 C   0  0  1  0  0  0  0  0  0  0  0  0
    1.7213   -2.9541   -0.0113 C   0  0  0  0  0  0  0  0  0  0  0  0
   -3.0037    0.6456    0.5414 C   0  0  0  0  0  0  0  0  0  0  0  0
   -2.2235   -0.5128   -1.4478 C   0  0  0  0  0  0  0  0  0  0  0  0
   -3.0681    0.1265   -2.2597 C   0  0  0  0  0  0  0  0  0  0  0  0
   -3.9936    1.1288   -1.6944 C   0  0  0  0  0  0  0  0  0  0  0  0
    0.0598   -3.1074    2.0888 H   0  0  0  0  0  0  0  0  0  0  0  0
   -2.5126   -2.7889    0.4755 H   0  0  0  0  0  0  0  0  0  0  0  0
   -0.1824   -3.1302   -0.9837 H   0  0  0  0  0  0  0  0  0  0  0  0
   -0.8978   -0.4288    1.5725 H   0  0  0  0  0  0  0  0  0  0  0  0
    1.9441   -4.0244    0.0295 H   0  0  0  0  0  0  0  0  0  0  0  0
    2.1585   -2.4772    0.8725 H   0  0  0  0  0  0  0  0  0  0  0  0
    0.0313   -5.1000    0.9590 H   0  0  0  0  0  0  0  0  0  0  0  0
   -1.6572   -1.9674    3.0647 H   0  0  0  0  0  0  0  0  0  0  0  0
   -1.5625   -1.2596   -1.8719 H   0  0  0  0  0  0  0  0  0  0  0  0
   -4.5067    1.9913    0.0981 H   0  0  0  0  0  0  0  0  0  0  0  0
   -3.1020   -0.0719   -3.3239 H   0  0  0  0  0  0  0  0  0  0  0  0
   -0.9062    2.5352    2.0414 H   0  0  0  0  0  0  0  0  0  0  0  0
  1  7  1  0  0  0  0
  1  9  1  0  0  0  0
  1 10  1  0  0  0  0
  1 11  2  0  0  0  0
  2  9  1  0  0  0  0
  2 13  1  0  0  0  0
  2 14  1  0  0  0  0
  2 15  2  0  0  0  0
  3 13  1  0  0  0  0
  3 16  1  0  0  0  0
  3 17  1  0  0  0  0
  3 18  2  0  0  0  0
  4 23  1  0  0  0  0
  4 24  1  0  0  0  0
  5 21  1  0  0  0  0
  5 36  1  0  0  0  0
  6 22  1  0  0  0  0
  6 37  1  0  0  0  0
  7 25  1  0  0  0  0
  8 26  2  0  0  0  0
 12 29  2  0  0  0  0
 16 41  1  0  0  0  0
 19 24  1  0  0  0  0
 19 26  1  0  0  0  0
 19 27  1  0  0  0  0
 20 26  1  0  0  0  0
 20 29  1  0  0  0  0
 20 39  1  0  0  0  0
 21 22  1  0  0  0  0
 21 23  1  0  0  0  0
 21 30  1  0  0  0  0
 22 24  1  0  0  0  0
 22 31  1  0  0  0  0
 23 25  1  0  0  0  0
 23 32  1  0  0  0  0
 24 33  1  0  0  0  0
 25 34  1  0  0  0  0
 25 35  1  0  0  0  0
 27 28  2  0  0  0  0
 27 38  1  0  0  0  0
 28 29  1  0  0  0  0
 28 40  1  0  0  0  0
M  CHG  3  10  -1  14  -1  17  -1
M  END
> <PUBCHEM_COMPOUND_CID>
5644

> <PUBCHEM_CONFORMER_RMSD>
1.4

> <PUBCHEM_CONFORMER_DIVERSEORDER>
1
87
147
100
42
64
59
67
90
220
131
84
121
21
168
19
65
77
39
162
186
173
116
193
139
86
99
85
58
226
10
46
93
212
40
55
198
210
161
22
223
129
114
49
7
17
196
32
83
208
37
118
79
135
98
132
103
148
13
45
109
156
4
41
43
72
145
142
44
31
136
88
125
76
30
97
48
81
94
52
227
95
47
200
70
3
107
11
63
134
2
8
71
120
54
24
112
113
184
175
27
36
155
16
91
60
199
176
15
33
177
128
204
122
89
23
53
9
28
202
127
74
182
92
231
57
130
191
209
169
75
234
185
146
73
106
158
152
190
6
171
229
123
38
151
102
180
80
133
61
159
101
219
221
141
207
51
138
232
96
224
140
34
104
68
189
108
5
78
14
137
119
166
20
201
105
157
35
26
29
165
12
215
69
163
150
115
149
192
110
117
195
62
170
167
18
183
205
188
206
124
25
197
211
111
82
172
50
233
56
225
66
228
187
218
153
214
164
178
222
194
143
144
126
179
203
213
154
160
217
230
181
216
174

> <PUBCHEM_MMFF94_PARTIAL_CHARGES>
35
1 1.44
10 -0.95
11 -0.95
12 -0.57
13 -0.54
14 -0.95
15 -0.95
16 -0.77
17 -0.95
18 -0.95
19 -0.47
2 1.44
20 -0.49
21 0.28
22 0.28
23 0.28
24 0.58
25 0.28
26 0.69
27 -0.04
28 -0.14
29 0.62
3 1.44
36 0.4
37 0.4
38 0.15
39 0.37
4 -0.56
40 0.15
41 0.5
5 -0.68
6 -0.68
7 -0.55
8 -0.57
9 -0.54

> <PUBCHEM_EFFECTIVE_ROTOR_COUNT>
9

> <PUBCHEM_PHARMACOPHORE_FEATURES>
18
1 10 acceptor
1 11 acceptor
1 12 acceptor
1 14 acceptor
1 15 acceptor
1 16 acceptor
1 17 acceptor
1 18 acceptor
1 20 donor
1 4 acceptor
1 5 acceptor
1 5 donor
1 6 acceptor
1 6 donor
1 8 acceptor
4 3 16 17 18 anion
5 4 21 22 23 24 rings
6 19 20 26 27 28 29 rings

> <PUBCHEM_HEAVY_ATOM_COUNT>
29

> <PUBCHEM_ATOM_DEF_STEREO_COUNT>
0

> <PUBCHEM_ATOM_UDEF_STEREO_COUNT>
4

> <PUBCHEM_BOND_DEF_STEREO_COUNT>
0

> <PUBCHEM_BOND_UDEF_STEREO_COUNT>
0

> <PUBCHEM_ISOTOPIC_ATOM_COUNT>
0

> <PUBCHEM_COMPONENT_COUNT>
1

> <PUBCHEM_CACTVS_TAUTO_COUNT>
3

> <PUBCHEM_CONFORMER_ID>
0000160C00000001

> <PUBCHEM_MMFF94_ENERGY>
26.9977

> <PUBCHEM_FEATURE_SELFOVERLAP>
91.402

> <PUBCHEM_SHAPE_FINGERPRINT>
10006869 2 17110703018319060793
10165383 225 17914866911921977535
10675989 125 18124607628207275204
10721379 63 17688362023922662341
12539773 59 17244122032429973841
12553582 1 18263629822878068268
12769317 202 17913786169406741431
12788726 201 18119808256162642592
13140716 1 18337941338559862818
14114206 34 18120069918123434268
17974551 9 17628672728425964210
18219364 16 18130211774638723259
19930381 70 17973723580388795715
22907989 373 17625264108961507151
238 59 18044107760420341990
474 4 18268160910085435367
508706 21 18198338460057270342
6438718 38 17318993315351549384
7226269 152 18340770459524957342
7471813 234 17618526701133854599
9981440 41 17321581209099098377

> <PUBCHEM_SHAPE_MULTIPOLES>
510.35
7.41
5.54
2.2
0.32
0.84
0.35
2.24
4.27
-2.15
-2.92
1.23
0.39
2.56

> <PUBCHEM_SHAPE_SELFOVERLAP>
1016.636

> <PUBCHEM_SHAPE_VOLUME>
302.9

> <PUBCHEM_COORDINATE_TYPE>
2
5
10

$$$$

