17396478
  -OEChem-06241222563D

 40 42  0     1  0  0  0  0  0999 V2000
    3.2187    1.5658   -0.8289 O   0  0  0  0  0  0  0  0  0  0  0  0
    2.3606   -0.8944    0.3984 O   0  0  0  0  0  0  0  0  0  0  0  0
    0.2918   -1.6929   -0.7792 O   0  0  0  0  0  0  0  0  0  0  0  0
   -6.8471    0.8392    0.0665 O   0  0  0  0  0  0  0  0  0  0  0  0
   -0.9416    0.1082    0.1030 N   0  0  0  0  0  0  0  0  0  0  0  0
    1.9757    0.9287   -1.1646 C   0  0  1  0  0  0  0  0  0  0  0  0
    1.4557    0.1555    0.0425 C   0  0  1  0  0  0  0  0  0  0  0  0
    1.0183    2.0323   -1.6017 C   0  0  0  0  0  0  0  0  0  0  0  0
    0.1973   -0.5889   -0.2616 C   0  0  0  0  0  0  0  0  0  0  0  0
    4.0751    0.7283   -0.1666 C   0  0  0  0  0  0  0  0  0  0  0  0
    3.6614   -0.4684    0.4197 C   0  0  0  0  0  0  0  0  0  0  0  0
    5.4108    1.1224   -0.0821 C   0  0  0  0  0  0  0  0  0  0  0  0
    4.5904   -1.2942    1.0534 C   0  0  0  0  0  0  0  0  0  0  0  0
   -2.2580   -0.3325   -0.0574 C   0  0  0  0  0  0  0  0  0  0  0  0
    6.3371    0.3030    0.5632 C   0  0  0  0  0  0  0  0  0  0  0  0
    5.9284   -0.9064    1.1256 C   0  0  0  0  0  0  0  0  0  0  0  0
   -3.3190    0.4730    0.3557 C   0  0  0  0  0  0  0  0  0  0  0  0
   -2.5106   -1.5788   -0.6305 C   0  0  0  0  0  0  0  0  0  0  0  0
   -4.6327    0.0323    0.1957 C   0  0  0  0  0  0  0  0  0  0  0  0
   -3.8243   -2.0196   -0.7907 C   0  0  0  0  0  0  0  0  0  0  0  0
   -4.8854   -1.2140   -0.3775 C   0  0  0  0  0  0  0  0  0  0  0  0
   -5.7395    0.8720    0.6255 C   0  0  0  0  0  0  0  0  0  0  0  0
   -5.5631    1.8294    1.7915 C   0  0  0  0  0  0  0  0  0  0  0  0
    2.1609    0.2603   -2.0168 H   0  0  0  0  0  0  0  0  0  0  0  0
    1.3274    0.8019    0.9208 H   0  0  0  0  0  0  0  0  0  0  0  0
    0.7941    2.7103   -0.7706 H   0  0  0  0  0  0  0  0  0  0  0  0
    1.4778    2.6433   -2.3868 H   0  0  0  0  0  0  0  0  0  0  0  0
    0.0805    1.6294   -1.9938 H   0  0  0  0  0  0  0  0  0  0  0  0
   -0.8275    1.0267    0.5255 H   0  0  0  0  0  0  0  0  0  0  0  0
    5.7391    2.0589   -0.5248 H   0  0  0  0  0  0  0  0  0  0  0  0
    4.2786   -2.2337    1.5015 H   0  0  0  0  0  0  0  0  0  0  0  0
    6.6522   -1.5448    1.6241 H   0  0  0  0  0  0  0  0  0  0  0  0
    7.3786    0.6050    0.6243 H   0  0  0  0  0  0  0  0  0  0  0  0
   -3.1078    1.4479    0.7887 H   0  0  0  0  0  0  0  0  0  0  0  0
   -1.7540   -2.2665   -0.9780 H   0  0  0  0  0  0  0  0  0  0  0  0
   -4.0225   -2.9903   -1.2361 H   0  0  0  0  0  0  0  0  0  0  0  0
   -5.9023   -1.5755   -0.5069 H   0  0  0  0  0  0  0  0  0  0  0  0
   -5.2042    2.7937    1.4234 H   0  0  0  0  0  0  0  0  0  0  0  0
   -4.8667    1.4214    2.5291 H   0  0  0  0  0  0  0  0  0  0  0  0
   -6.5264    1.9659    2.2925 H   0  0  0  0  0  0  0  0  0  0  0  0
  1  6  1  0  0  0  0
  1 10  1  0  0  0  0
  2  7  1  0  0  0  0
  2 11  1  0  0  0  0
  3  9  2  0  0  0  0
  4 22  2  0  0  0  0
  5  9  1  0  0  0  0
  5 14  1  0  0  0  0
  5 29  1  0  0  0  0
  6  7  1  0  0  0  0
  6  8  1  0  0  0  0
  6 24  1  0  0  0  0
  7  9  1  0  0  0  0
  7 25  1  0  0  0  0
  8 26  1  0  0  0  0
  8 27  1  0  0  0  0
  8 28  1  0  0  0  0
 10 11  1  0  0  0  0
 10 12  2  0  0  0  0
 11 13  2  0  0  0  0
 12 15  1  0  0  0  0
 12 30  1  0  0  0  0
 13 16  1  0  0  0  0
 13 31  1  0  0  0  0
 14 17  1  0  0  0  0
 14 18  2  0  0  0  0
 15 16  2  0  0  0  0
 15 33  1  0  0  0  0
 16 32  1  0  0  0  0
 17 19  2  0  0  0  0
 17 34  1  0  0  0  0
 18 20  1  0  0  0  0
 18 35  1  0  0  0  0
 19 21  1  0  0  0  0
 19 22  1  0  0  0  0
 20 21  2  0  0  0  0
 20 36  1  0  0  0  0
 21 37  1  0  0  0  0
 22 23  1  0  0  0  0
 23 38  1  0  0  0  0
 23 39  1  0  0  0  0
 23 40  1  0  0  0  0
M  END
> <PUBCHEM_COMPOUND_CID>
17396478

> <PUBCHEM_CONFORMER_RMSD>
0.8

> <PUBCHEM_CONFORMER_DIVERSEORDER>
2
56
67
66
50
6
61
72
81
58
91
57
101
105
70
20
51
88
78
77
96
17
53
19
104
107
83
36
76
48
47
54
84
97
59
13
109
14
99
46
33
93
42
55
102
11
95
85
37
82
1
60
87
16
62
23
49
106
24
27
94
98
65
79
3
64
8
103
30
38
40
100
92
111
63
12
89
18
45
34
110
29
108
5
86
68
75
43
25
35
4
52
73
90
15
80
74
39
41
71
44
10
7
26
112
21
9
69
31
28
32
22

> <PUBCHEM_MMFF94_PARTIAL_CHARGES>
31
1 -0.36
10 0.08
11 0.08
12 -0.15
13 -0.15
14 0.12
15 -0.15
16 -0.15
17 -0.15
18 -0.15
19 0.09
2 -0.36
20 -0.15
21 -0.15
22 0.42
23 0.06
29 0.37
3 -0.57
30 0.15
31 0.15
32 0.15
33 0.15
34 0.15
35 0.15
36 0.15
37 0.15
4 -0.57
5 -0.55
6 0.28
7 0.34
9 0.57

> <PUBCHEM_EFFECTIVE_ROTOR_COUNT>
4.8

> <PUBCHEM_PHARMACOPHORE_FEATURES>
8
1 1 acceptor
1 2 acceptor
1 3 acceptor
1 4 acceptor
1 5 donor
6 1 2 6 7 10 11 rings
6 10 11 12 13 15 16 rings
6 14 17 18 19 20 21 rings

> <PUBCHEM_HEAVY_ATOM_COUNT>
23

> <PUBCHEM_ATOM_DEF_STEREO_COUNT>
0

> <PUBCHEM_ATOM_UDEF_STEREO_COUNT>
2

> <PUBCHEM_BOND_DEF_STEREO_COUNT>
0

> <PUBCHEM_BOND_UDEF_STEREO_COUNT>
0

> <PUBCHEM_ISOTOPIC_ATOM_COUNT>
0

> <PUBCHEM_COMPONENT_COUNT>
1

> <PUBCHEM_CACTVS_TAUTO_COUNT>
4

> <PUBCHEM_CONFORMER_ID>
010972FE00000002

> <PUBCHEM_MMFF94_ENERGY>
76.3425

> <PUBCHEM_FEATURE_SELFOVERLAP>
40.655

> <PUBCHEM_SHAPE_FINGERPRINT>
10688039 33 17131835395207076948
10906281 52 18200861903978495526
11089746 13 17894919516115184737
11315181 36 18337113376239077275
12107183 9 17834681873939253930
12236239 1 18410576158732099970
12596602 18 18187368684339296826
12616971 3 18131068208117664359
12633257 1 18060136527066971327
13167372 99 18411136969554717096
13533116 47 17988931110918496682
13590594 115 17917996091723725133
13685833 64 16773797013101747328
13785724 45 17976538635505593426
1420 363 15482672389877668266
14251764 18 18413108338390224975
14341114 176 17704069607538065652
14849402 71 18199744739845885100
15142383 8 17632302310276533636
15183329 4 18412827983993706006
15348495 7 16844999127043221577
15461852 350 17458351806189148933
15788980 27 18341894069522816419
16079462 125 16081372968181555937
16993438 75 17629774619656604621
17980427 23 18334296435764512773
1813 80 17489584602138964406
19489759 90 17458346338653654019
20281389 69 18411983572423638649
20511986 3 18336841826388332441
20554085 129 17023193772611709499
21033648 29 16877958126204570682
21130935 74 18411985741456262426
21150785 3 14129065816004892873
21267235 1 17988365975190588146
21424621 283 16516509145435992723
21521721 280 15984813823335381472
21623969 137 16487254395756900466
220451 1 18272932713440908510
2303208 19 15123510311020709048
23081809 10 18341895151822959174
23402539 116 18113904831592308645
23522609 53 18128231476893397972
23559900 14 17749113261801698353
23569943 247 17630904887175682218
24771293 8 18198349460228352476
300161 21 18260269646254901359
33382 64 14548747239542292584
345986 75 17987538042333765960
34797466 226 16950836990924790012
397830 11 15697139739257631585
4073 2 17988359257160390498
5104073 3 18342176609519502858
542803 24 18408605850747972938
5758199 1 18271808974477479592
6328613 192 18336826386440339328
7226269 152 17749387087895368241

> <PUBCHEM_SHAPE_MULTIPOLES>
444.87
17
1.86
1.19
3.26
0
0.06
-2.55
6.03
0.99
-0.3
0.1
-0.39
-2.55

> <PUBCHEM_SHAPE_SELFOVERLAP>
968.171

> <PUBCHEM_SHAPE_VOLUME>
241.2

> <PUBCHEM_COORDINATE_TYPE>
2
5
10

$$$$

