585136
  -OEChem-06241222453D

 47 50  0     0  0  0  0  0  0999 V2000
   -1.4891    2.2502    0.1137 S   0  0  0  0  0  0  0  0  0  0  0  0
   -0.9583   -0.2698    0.0401 N   0  0  0  0  0  0  0  0  0  0  0  0
    0.9453    1.2676    0.1519 N   0  0  0  0  0  0  0  0  0  0  0  0
    2.0160    0.4484    0.1112 N   0  0  0  0  0  0  0  0  0  0  0  0
    6.6317   -0.2665   -0.6592 N   0  0  0  0  0  0  0  0  0  0  0  0
   -2.4210   -0.3091   -0.0063 C   0  0  0  0  0  0  0  0  0  0  0  0
   -4.4581    0.3964   -1.3058 C   0  0  0  0  0  0  0  0  0  0  0  0
   -4.4222   -1.8319   -0.1203 C   0  0  0  0  0  0  0  0  0  0  0  0
   -4.5351    0.3066    1.2151 C   0  0  0  0  0  0  0  0  0  0  0  0
   -2.9209    0.4441   -1.2513 C   0  0  0  0  0  0  0  0  0  0  0  0
   -2.8852   -1.7747   -0.0709 C   0  0  0  0  0  0  0  0  0  0  0  0
   -2.9973    0.3537    1.2570 C   0  0  0  0  0  0  0  0  0  0  0  0
   -4.9163   -1.0719   -1.3644 C   0  0  0  0  0  0  0  0  0  0  0  0
   -5.0292    1.0536   -0.0367 C   0  0  0  0  0  0  0  0  0  0  0  0
   -4.9935   -1.1608    1.1415 C   0  0  0  0  0  0  0  0  0  0  0  0
   -0.3731    0.8667    0.0975 C   0  0  0  0  0  0  0  0  0  0  0  0
    3.2006    0.9839    0.1249 C   0  0  0  0  0  0  0  0  0  0  0  0
    4.3757    0.0726    0.0388 C   0  0  0  0  0  0  0  0  0  0  0  0
    3.4694    2.4727    0.2244 C   0  0  0  0  0  0  0  0  0  0  0  0
    4.2893   -1.1978    0.5485 C   0  0  0  0  0  0  0  0  0  0  0  0
    5.5302    0.5093   -0.5479 C   0  0  0  0  0  0  0  0  0  0  0  0
    5.4021   -2.0260    0.4528 C   0  0  0  0  0  0  0  0  0  0  0  0
    6.5388   -1.5172   -0.1547 C   0  0  0  0  0  0  0  0  0  0  0  0
   -4.8195    0.9234   -2.1961 H   0  0  0  0  0  0  0  0  0  0  0  0
   -4.7532   -2.8752   -0.1675 H   0  0  0  0  0  0  0  0  0  0  0  0
   -4.9505    0.7703    2.1170 H   0  0  0  0  0  0  0  0  0  0  0  0
   -2.5735   -0.1767   -2.0981 H   0  0  0  0  0  0  0  0  0  0  0  0
   -2.6027    1.4016   -1.6611 H   0  0  0  0  0  0  0  0  0  0  0  0
   -2.5165   -2.3340    0.7989 H   0  0  0  0  0  0  0  0  0  0  0  0
   -2.4629   -2.2729   -0.9532 H   0  0  0  0  0  0  0  0  0  0  0  0
   -2.7060    1.2784    1.7528 H   0  0  0  0  0  0  0  0  0  0  0  0
   -2.7009   -0.3268    2.0768 H   0  0  0  0  0  0  0  0  0  0  0  0
   -6.0109   -1.1194   -1.4197 H   0  0  0  0  0  0  0  0  0  0  0  0
   -4.5327   -1.5513   -2.2734 H   0  0  0  0  0  0  0  0  0  0  0  0
   -4.7699    2.1165    0.0090 H   0  0  0  0  0  0  0  0  0  0  0  0
   -6.1259    1.0165   -0.0715 H   0  0  0  0  0  0  0  0  0  0  0  0
   -6.0893   -1.2093    1.1260 H   0  0  0  0  0  0  0  0  0  0  0  0
   -4.6657   -1.7042    2.0362 H   0  0  0  0  0  0  0  0  0  0  0  0
    1.1024    2.2702    0.1714 H   0  0  0  0  0  0  0  0  0  0  0  0
   -2.7965    2.0618    0.0678 H   0  0  0  0  0  0  0  0  0  0  0  0
    2.8685    2.9067    1.0295 H   0  0  0  0  0  0  0  0  0  0  0  0
    3.2108    2.9529   -0.7234 H   0  0  0  0  0  0  0  0  0  0  0  0
    4.5097    2.6977    0.4699 H   0  0  0  0  0  0  0  0  0  0  0  0
    3.3911   -1.5740    1.0280 H   0  0  0  0  0  0  0  0  0  0  0  0
    5.6420    1.4914   -0.9927 H   0  0  0  0  0  0  0  0  0  0  0  0
    5.3812   -3.0371    0.8431 H   0  0  0  0  0  0  0  0  0  0  0  0
    7.4338   -2.1227   -0.2537 H   0  0  0  0  0  0  0  0  0  0  0  0
  1 16  1  0  0  0  0
  1 40  1  0  0  0  0
  2  6  1  0  0  0  0
  2 16  2  0  0  0  0
  3  4  1  0  0  0  0
  3 16  1  0  0  0  0
  3 39  1  0  0  0  0
  4 17  2  0  0  0  0
  5 21  1  0  0  0  0
  5 23  2  0  0  0  0
  6 10  1  0  0  0  0
  6 11  1  0  0  0  0
  6 12  1  0  0  0  0
  7 10  1  0  0  0  0
  7 13  1  0  0  0  0
  7 14  1  0  0  0  0
  7 24  1  0  0  0  0
  8 11  1  0  0  0  0
  8 13  1  0  0  0  0
  8 15  1  0  0  0  0
  8 25  1  0  0  0  0
  9 12  1  0  0  0  0
  9 14  1  0  0  0  0
  9 15  1  0  0  0  0
  9 26  1  0  0  0  0
 10 27  1  0  0  0  0
 10 28  1  0  0  0  0
 11 29  1  0  0  0  0
 11 30  1  0  0  0  0
 12 31  1  0  0  0  0
 12 32  1  0  0  0  0
 13 33  1  0  0  0  0
 13 34  1  0  0  0  0
 14 35  1  0  0  0  0
 14 36  1  0  0  0  0
 15 37  1  0  0  0  0
 15 38  1  0  0  0  0
 17 18  1  0  0  0  0
 17 19  1  0  0  0  0
 18 20  1  0  0  0  0
 18 21  2  0  0  0  0
 19 41  1  0  0  0  0
 19 42  1  0  0  0  0
 19 43  1  0  0  0  0
 20 22  2  0  0  0  0
 20 44  1  0  0  0  0
 21 45  1  0  0  0  0
 22 23  1  0  0  0  0
 22 46  1  0  0  0  0
 23 47  1  0  0  0  0
M  END
> <PUBCHEM_COMPOUND_CID>
585136

> <PUBCHEM_CONFORMER_RMSD>
0.8

> <PUBCHEM_CONFORMER_DIVERSEORDER>
1
8
4
6
2
3
5
7

> <PUBCHEM_MMFF94_PARTIAL_CHARGES>
20
1 -0.32
16 0.64
17 0.3
18 0.09
19 0.06
2 -0.7
20 -0.15
21 0.16
22 -0.15
23 0.16
3 -0.41
39 0.4
4 -0.49
40 0.18
44 0.15
45 0.15
46 0.15
47 0.15
5 -0.62
6 0.25

> <PUBCHEM_EFFECTIVE_ROTOR_COUNT>
5.2

> <PUBCHEM_PHARMACOPHORE_FEATURES>
9
1 3 donor
1 4 acceptor
1 5 acceptor
3 2 3 16 cation
6 5 18 20 21 22 23 rings
6 6 7 8 10 11 13 rings
6 6 7 9 10 12 14 rings
6 6 8 9 11 12 15 rings
6 7 8 9 13 14 15 rings

> <PUBCHEM_HEAVY_ATOM_COUNT>
23

> <PUBCHEM_ATOM_DEF_STEREO_COUNT>
0

> <PUBCHEM_ATOM_UDEF_STEREO_COUNT>
0

> <PUBCHEM_BOND_DEF_STEREO_COUNT>
0

> <PUBCHEM_BOND_UDEF_STEREO_COUNT>
1

> <PUBCHEM_ISOTOPIC_ATOM_COUNT>
0

> <PUBCHEM_COMPONENT_COUNT>
1

> <PUBCHEM_CACTVS_TAUTO_COUNT>
3

> <PUBCHEM_CONFORMER_ID>
0008EDB000000001

> <PUBCHEM_MMFF94_ENERGY>
150.2192

> <PUBCHEM_FEATURE_SELFOVERLAP>
58.232

> <PUBCHEM_SHAPE_FINGERPRINT>
10 15 6915970479121181902
10076449 9 13110955398373875753
10622 236 17607266276115162087
11315181 36 17385725785692724577
11524674 6 17022621974898915791
12107183 9 18262225746345334913
12166972 35 18341047424037076957
12236239 1 17894911815339010840
12516196 113 18259706696892401928
12523318 42 14273749404052212005
12596602 18 16950286187439679562
12616971 3 17603864472927008341
12633257 1 16443344221948763796
12760667 363 18333733541360666600
13073987 5 18261109613135814921
13167823 11 18409450258656452362
13288520 33 18410011014477515447
13533116 47 18335138649082048320
13668630 136 18259703393819971470
13914758 101 17240486948826887301
13955234 65 18190183378494108760
14341114 176 18410570682891579068
14347332 77 18341617057333936172
14528608 73 11312053240861785666
15183329 4 18341897411276579930
15188451 53 15864366709362816293
15348495 7 13984673525060365318
15788980 27 18342458136009479156
15799311 1 18338218415215820454
17093844 174 18260554437183878089
17349148 13 17967246477332016876
17780758 139 17894909637800953233
17844677 252 18412259519302906572
17857418 61 18408324406352822666
17870717 6 17346601868021244995
18927931 339 18334289881791936325
19489759 90 15864070987905640347
200 152 18335423460704827521
21267235 1 18341045229978324915
220451 1 18409441479948878166
22061861 79 18201722855647175574
2215653 11 18271815626426876566
22950370 63 18410570665337215584
2297311 6 16989122059108421373
2303208 19 17989481905396739816
23081809 10 17749106660516397048
23198884 109 15339119060833501377
23402539 116 18261111880915366157
23466295 7 17771334289353638323
23522609 53 18119777345078317976
23559900 14 18339088098764315296
2767999 5 10663817464782513478
2916195 48 7781514811071351444
3004659 81 18202003244524648354
314194 84 18411415138065791522
335352 9 18410294735822868677
34797466 226 16415189036359974716
351380 3 18333452049763301510
4015057 19 18339925892238503713
4073 2 18128814149668211202
4214541 1 18410011052467959625
46194498 28 17418372464050153484
465052 167 18333165073191915358
5104073 3 17967530129983780433
531348 171 18058739129402879183
542803 24 13110964231992806116
543368 44 11383826065366744567
559249 180 18260832618141997719
90127 26 17632580422399657933
960060 61 17989485217465358476
999808 66 17846202333885437891

> <PUBCHEM_SHAPE_MULTIPOLES>
457.25
17.2
2.15
1.09
20.44
0.23
-0.06
-6.79
-1.28
0.88
0.16
-1.45
-0.08
-0.23

> <PUBCHEM_SHAPE_SELFOVERLAP>
986.112

> <PUBCHEM_SHAPE_VOLUME>
256.3

> <PUBCHEM_COORDINATE_TYPE>
2
5
10

$$$$

