6704
  -OEChem-06261201273D

 26 28  0     0  0  0  0  0  0999 V2000
    0.3577    2.1810   -0.0002 O   0  0  0  0  0  0  0  0  0  0  0  0
   -1.5308   -2.8179    0.0024 O   0  0  0  0  0  0  0  0  0  0  0  0
    3.1178    1.9157   -1.0968 O   0  5  0  0  0  0  0  0  0  0  0  0
    3.1176    1.9144    1.0986 O   0  0  0  0  0  0  0  0  0  0  0  0
    2.8617    1.3686    0.0006 N   0  3  0  0  0  0  0  0  0  0  0  0
    0.8732   -0.1343   -0.0008 C   0  0  0  0  0  0  0  0  0  0  0  0
    0.3691   -1.4366   -0.0009 C   0  0  0  0  0  0  0  0  0  0  0  0
   -1.5011    0.7849   -0.0005 C   0  0  0  0  0  0  0  0  0  0  0  0
   -2.0053   -0.5174   -0.0004 C   0  0  0  0  0  0  0  0  0  0  0  0
   -0.0434    1.0240   -0.0008 C   0  0  0  0  0  0  0  0  0  0  0  0
   -1.0886   -1.6758   -0.0001 C   0  0  0  0  0  0  0  0  0  0  0  0
    2.2570    0.0788   -0.0002 C   0  0  0  0  0  0  0  0  0  0  0  0
    1.2488   -2.5259   -0.0010 C   0  0  0  0  0  0  0  0  0  0  0  0
   -2.3808    1.8741   -0.0002 C   0  0  0  0  0  0  0  0  0  0  0  0
   -3.3890   -0.7304   -0.0002 C   0  0  0  0  0  0  0  0  0  0  0  0
    3.1300   -1.0095    0.0001 C   0  0  0  0  0  0  0  0  0  0  0  0
    2.6270   -2.3090   -0.0003 C   0  0  0  0  0  0  0  0  0  0  0  0
   -3.7590    1.6573    0.0005 C   0  0  0  0  0  0  0  0  0  0  0  0
   -4.2620    0.3578    0.0002 C   0  0  0  0  0  0  0  0  0  0  0  0
    0.8818   -3.5487   -0.0011 H   0  0  0  0  0  0  0  0  0  0  0  0
   -2.0165    2.8979   -0.0002 H   0  0  0  0  0  0  0  0  0  0  0  0
   -3.8063   -1.7338   -0.0002 H   0  0  0  0  0  0  0  0  0  0  0  0
    4.2079   -0.8635    0.0007 H   0  0  0  0  0  0  0  0  0  0  0  0
    3.3087   -3.1547   -0.0001 H   0  0  0  0  0  0  0  0  0  0  0  0
   -4.4409    2.5029    0.0009 H   0  0  0  0  0  0  0  0  0  0  0  0
   -5.3354    0.1918    0.0005 H   0  0  0  0  0  0  0  0  0  0  0  0
  1 10  2  0  0  0  0
  2 11  2  0  0  0  0
  3  5  1  0  0  0  0
  4  5  2  0  0  0  0
  5 12  1  0  0  0  0
  6  7  2  0  0  0  0
  6 10  1  0  0  0  0
  6 12  1  0  0  0  0
  7 11  1  0  0  0  0
  7 13  1  0  0  0  0
  8  9  1  0  0  0  0
  8 10  1  0  0  0  0
  8 14  2  0  0  0  0
  9 11  1  0  0  0  0
  9 15  2  0  0  0  0
 12 16  2  0  0  0  0
 13 17  2  0  0  0  0
 13 20  1  0  0  0  0
 14 18  1  0  0  0  0
 14 21  1  0  0  0  0
 15 19  1  0  0  0  0
 15 22  1  0  0  0  0
 16 17  1  0  0  0  0
 16 23  1  0  0  0  0
 17 24  1  0  0  0  0
 18 19  2  0  0  0  0
 18 25  1  0  0  0  0
 19 26  1  0  0  0  0
M  CHG  2   3  -1   5   1
M  END
> <PUBCHEM_COMPOUND_CID>
6704

> <PUBCHEM_CONFORMER_RMSD>
0.6

> <PUBCHEM_CONFORMER_DIVERSEORDER>
1

> <PUBCHEM_MMFF94_PARTIAL_CHARGES>
26
1 -0.57
10 0.4
11 0.4
12 0.13
13 -0.15
14 -0.15
15 -0.15
16 -0.15
17 -0.15
18 -0.15
19 -0.15
2 -0.57
20 0.15
21 0.15
22 0.15
23 0.15
24 0.15
25 0.15
26 0.15
3 -0.52
4 -0.52
5 0.91
6 0.09
7 0.09
8 0.09
9 0.09

> <PUBCHEM_EFFECTIVE_ROTOR_COUNT>
1

> <PUBCHEM_PHARMACOPHORE_FEATURES>
8
1 1 acceptor
1 2 acceptor
1 3 acceptor
1 3 anion
1 4 acceptor
6 6 7 12 13 16 17 rings
6 6 7 8 9 10 11 rings
6 8 9 14 15 18 19 rings

> <PUBCHEM_HEAVY_ATOM_COUNT>
19

> <PUBCHEM_ATOM_DEF_STEREO_COUNT>
0

> <PUBCHEM_ATOM_UDEF_STEREO_COUNT>
0

> <PUBCHEM_BOND_DEF_STEREO_COUNT>
0

> <PUBCHEM_BOND_UDEF_STEREO_COUNT>
0

> <PUBCHEM_ISOTOPIC_ATOM_COUNT>
0

> <PUBCHEM_COMPONENT_COUNT>
1

> <PUBCHEM_CACTVS_TAUTO_COUNT>
1

> <PUBCHEM_CONFORMER_ID>
00001A3000000001

> <PUBCHEM_MMFF94_ENERGY>
65.5203

> <PUBCHEM_FEATURE_SELFOVERLAP>
40.721

> <PUBCHEM_SHAPE_FINGERPRINT>
10411042 1 16609134465876466959
10608611 8 18339364166413681581
10616163 171 18339357444515751703
10967382 1 18410575071899509317
10980938 120 18411418410150174457
1100329 8 15889969245505656211
11132069 177 18340212903206194265
11471102 20 18267026231075314927
11680986 33 18412537704487311531
12403259 226 18125162885752053415
13140716 1 18411420656360132778
13380535 76 18411704248914060019
13897977 150 18338801225018468437
14178342 30 18194415402410583824
14790565 3 17255099664313044064
15196674 1 18410856586032033573
15442244 35 18193556898424700499
15536298 74 18334859449825691338
16945 1 18266741281538438535
18186145 218 18337952414921563125
193761 8 18338797814709271623
19591789 44 18411134770779433123
20510252 161 17830166909628120184
20645477 70 18336550524948591335
20739085 24 18124568007423866521
21267235 1 18337944705624350967
21501502 16 18410015424781512287
22094290 62 18338801216207215114
221490 88 18340477958602352387
2255824 54 18272365425512463474
2334 1 18410574011195548525
23366157 5 18059572525083952186
23402539 116 18190755321365021647
23463225 33 18339642368498679679
23559900 14 18263086668360465874
238 59 17480340019904539309
2748010 2 18340203102407192943
335352 9 18050568744280131959
350125 39 18267298914349149901
474 4 18059852839960381780
5104073 3 18411134775480193497
7364860 26 18334859467454070362
9709674 26 18409444812691207767
9981440 41 18125163736646124056

> <PUBCHEM_SHAPE_MULTIPOLES>
362.55
6.46
2.95
0.69
2.74
0.44
0
-1.58
0
-1.37
0
-0.26
-0.2
0

> <PUBCHEM_SHAPE_SELFOVERLAP>
821.614

> <PUBCHEM_SHAPE_VOLUME>
188

> <PUBCHEM_COORDINATE_TYPE>
2
5
10

$$$$

