47205549
  -OEChem-06241222593D

 34 35  0     1  0  0  0  0  0999 V2000
    0.5807   -1.9727   -1.5305 O   0  0  0  0  0  0  0  0  0  0  0  0
    2.2145    0.3188    0.1182 N   0  0  0  0  0  0  0  0  0  0  0  0
    0.0674   -2.0089    0.7345 N   0  0  0  0  0  0  0  0  0  0  0  0
    2.3313    2.3679    0.9660 N   0  0  0  0  0  0  0  0  0  0  0  0
   -1.5952    0.6973    0.9748 N   0  0  0  0  0  0  0  0  0  0  0  0
    2.2468   -1.1974    0.0520 C   0  0  1  0  0  0  0  0  0  0  0  0
    0.8867   -1.7630   -0.3585 C   0  0  0  0  0  0  0  0  0  0  0  0
   -1.2675   -2.5506    0.6193 C   0  0  0  0  0  0  0  0  0  0  0  0
   -2.3308   -1.6149    1.1892 C   0  0  0  0  0  0  0  0  0  0  0  0
    3.3578   -1.6792   -0.8841 C   0  0  0  0  0  0  0  0  0  0  0  0
    1.9673    1.1690   -0.9227 C   0  0  0  0  0  0  0  0  0  0  0  0
   -2.3837   -0.2835    0.4810 C   0  0  0  0  0  0  0  0  0  0  0  0
    2.4272    1.0840    1.2310 C   0  0  0  0  0  0  0  0  0  0  0  0
    2.0448    2.4277   -0.3748 C   0  0  0  0  0  0  0  0  0  0  0  0
   -3.2164   -0.1311   -0.6159 C   0  0  0  0  0  0  0  0  0  0  0  0
   -3.2411    1.1076   -1.2469 C   0  0  0  0  0  0  0  0  0  0  0  0
   -1.6460    1.8875    0.3355 C   0  0  0  0  0  0  0  0  0  0  0  0
   -2.4438    2.1415   -0.7683 C   0  0  0  0  0  0  0  0  0  0  0  0
    2.4888   -1.5181    1.0731 H   0  0  0  0  0  0  0  0  0  0  0  0
   -1.2737   -3.4922    1.1788 H   0  0  0  0  0  0  0  0  0  0  0  0
   -1.4855   -2.7858   -0.4282 H   0  0  0  0  0  0  0  0  0  0  0  0
   -3.3137   -2.0995    1.1443 H   0  0  0  0  0  0  0  0  0  0  0  0
   -2.1275   -1.4333    2.2527 H   0  0  0  0  0  0  0  0  0  0  0  0
    3.4120   -2.7731   -0.8850 H   0  0  0  0  0  0  0  0  0  0  0  0
    4.3305   -1.2876   -0.5677 H   0  0  0  0  0  0  0  0  0  0  0  0
    3.1890   -1.3560   -1.9172 H   0  0  0  0  0  0  0  0  0  0  0  0
    0.4195   -1.8294    1.6701 H   0  0  0  0  0  0  0  0  0  0  0  0
    1.7624    0.8221   -1.9257 H   0  0  0  0  0  0  0  0  0  0  0  0
    2.6449    0.6552    2.1995 H   0  0  0  0  0  0  0  0  0  0  0  0
    1.9071    3.3739   -0.8775 H   0  0  0  0  0  0  0  0  0  0  0  0
   -3.8328   -0.9446   -0.9829 H   0  0  0  0  0  0  0  0  0  0  0  0
   -3.8799    1.2670   -2.1103 H   0  0  0  0  0  0  0  0  0  0  0  0
   -1.0086    2.6615    0.7499 H   0  0  0  0  0  0  0  0  0  0  0  0
   -2.4471    3.1154   -1.2441 H   0  0  0  0  0  0  0  0  0  0  0  0
  1  7  2  0  0  0  0
  2  6  1  0  0  0  0
  2 11  1  0  0  0  0
  2 13  1  0  0  0  0
  3  7  1  0  0  0  0
  3  8  1  0  0  0  0
  3 27  1  0  0  0  0
  4 13  2  0  0  0  0
  4 14  1  0  0  0  0
  5 12  1  0  0  0  0
  5 17  2  0  0  0  0
  6  7  1  0  0  0  0
  6 10  1  0  0  0  0
  6 19  1  0  0  0  0
  8  9  1  0  0  0  0
  8 20  1  0  0  0  0
  8 21  1  0  0  0  0
  9 12  1  0  0  0  0
  9 22  1  0  0  0  0
  9 23  1  0  0  0  0
 10 24  1  0  0  0  0
 10 25  1  0  0  0  0
 10 26  1  0  0  0  0
 11 14  2  0  0  0  0
 11 28  1  0  0  0  0
 12 15  2  0  0  0  0
 13 29  1  0  0  0  0
 14 30  1  0  0  0  0
 15 16  1  0  0  0  0
 15 31  1  0  0  0  0
 16 18  2  0  0  0  0
 16 32  1  0  0  0  0
 17 18  1  0  0  0  0
 17 33  1  0  0  0  0
 18 34  1  0  0  0  0
M  END
> <PUBCHEM_COMPOUND_CID>
47205549

> <PUBCHEM_CONFORMER_RMSD>
0.8

> <PUBCHEM_CONFORMER_DIVERSEORDER>
2
196
84
149
258
119
233
32
253
190
74
273
3
171
195
259
61
92
185
135
254
173
274
50
28
235
55
4
124
168
214
101
247
97
234
42
157
240
23
44
125
86
130
236
154
262
231
268
102
34
257
139
188
47
202
89
27
65
156
210
269
120
207
53
38
60
49
169
121
51
116
46
271
52
246
255
33
256
204
228
203
117
54
277
1
144
75
129
11
179
237
64
136
140
272
100
261
105
250
106
163
191
137
239
134
63
170
24
83
73
143
30
245
232
127
211
70
67
152
221
160
80
229
263
177
201
19
174
197
81
222
208
71
6
213
98
223
192
35
43
212
225
91
104
109
131
238
241
126
68
128
16
18
224
37
25
242
110
133
248
62
153
39
230
205
29
216
189
13
218
123
79
159
142
69
40
90
175
22
15
112
244
165
161
252
265
166
138
200
243
181
12
132
193
183
82
31
76
78
95
264
17
21
226
215
266
113
93
8
5
194
180
227
26
146
155
57
141
260
14
162
220
209
178
217
198
249
56
107
114
172
99
182
72
150
219
206
7
87
158
187
85
59
20
58
270
151
77
66
96
199
45
48
36
115
10
9
275
88
111
147
167
186
145
148
267
164
184
122
108
41
103
118
276
176
251
94

> <PUBCHEM_MMFF94_PARTIAL_CHARGES>
25
1 -0.57
11 -0.3
12 0.17
13 0.04
14 0.08
15 -0.15
16 -0.15
17 0.16
18 -0.15
2 0.05
27 0.37
28 0.15
29 0.15
3 -0.73
30 0.15
31 0.15
32 0.15
33 0.15
34 0.15
4 -0.57
5 -0.62
6 0.32
7 0.57
8 0.3
9 0.14

> <PUBCHEM_EFFECTIVE_ROTOR_COUNT>
6

> <PUBCHEM_PHARMACOPHORE_FEATURES>
6
1 1 acceptor
1 3 donor
1 5 acceptor
3 2 4 13 cation
5 2 4 11 13 14 rings
6 5 12 15 16 17 18 rings

> <PUBCHEM_HEAVY_ATOM_COUNT>
18

> <PUBCHEM_ATOM_DEF_STEREO_COUNT>
0

> <PUBCHEM_ATOM_UDEF_STEREO_COUNT>
1

> <PUBCHEM_BOND_DEF_STEREO_COUNT>
0

> <PUBCHEM_BOND_UDEF_STEREO_COUNT>
0

> <PUBCHEM_ISOTOPIC_ATOM_COUNT>
0

> <PUBCHEM_COMPONENT_COUNT>
1

> <PUBCHEM_CACTVS_TAUTO_COUNT>
4

> <PUBCHEM_CONFORMER_ID>
02D04CAD00000002

> <PUBCHEM_MMFF94_ENERGY>
26.8548

> <PUBCHEM_FEATURE_SELFOVERLAP>
30.446

> <PUBCHEM_SHAPE_MULTIPOLES>
344.64
5.57
3.28
1.28
0.49
0
-0.06
-1.13
-0.84
-0.6
0.11
0.02
0.04
1.38

> <PUBCHEM_SHAPE_SELFOVERLAP>
716.538

> <PUBCHEM_SHAPE_VOLUME>
196.9

> <PUBCHEM_COORDINATE_TYPE>
2
5
10

$$$$

