17395766
  -OEChem-06241222523D

 51 54  0     0  0  0  0  0  0999 V2000
    6.4544    2.0339    0.6819 F   0  0  0  0  0  0  0  0  0  0  0  0
   -0.9032    0.8573   -2.4478 O   0  0  0  0  0  0  0  0  0  0  0  0
    3.0213   -0.1065    0.4819 N   0  0  0  0  0  0  0  0  0  0  0  0
    0.4355    0.0177   -0.7453 N   0  0  0  0  0  0  0  0  0  0  0  0
   -6.0331    1.6028    1.1512 N   0  0  0  0  0  0  0  0  0  0  0  0
    1.8094   -0.0050    1.3082 C   0  0  0  0  0  0  0  0  0  0  0  0
    2.8343    0.5998   -0.7939 C   0  0  0  0  0  0  0  0  0  0  0  0
    0.5983   -0.5894    0.5790 C   0  0  0  0  0  0  0  0  0  0  0  0
    1.6471    0.0220   -1.5636 C   0  0  0  0  0  0  0  0  0  0  0  0
    4.1783    0.4271    1.1995 C   0  0  0  0  0  0  0  0  0  0  0  0
   -0.7718    0.4537   -1.2895 C   0  0  0  0  0  0  0  0  0  0  0  0
   -1.9726    0.4225   -0.3779 C   0  0  0  0  0  0  0  0  0  0  0  0
   -3.2121    0.9244   -1.1056 C   0  0  0  0  0  0  0  0  0  0  0  0
    5.4730   -0.1277    0.6677 C   0  0  0  0  0  0  0  0  0  0  0  0
   -4.4470    0.9351   -0.2507 C   0  0  0  0  0  0  0  0  0  0  0  0
   -5.3819   -0.1269   -0.0983 C   0  0  0  0  0  0  0  0  0  0  0  0
   -6.3668    0.3181    0.7862 C   0  0  0  0  0  0  0  0  0  0  0  0
   -4.8745    1.9845    0.5298 C   0  0  0  0  0  0  0  0  0  0  0  0
    6.5558    0.7204    0.4353 C   0  0  0  0  0  0  0  0  0  0  0  0
    5.5882   -1.4933    0.4069 C   0  0  0  0  0  0  0  0  0  0  0  0
   -5.4850   -1.4278   -0.6297 C   0  0  0  0  0  0  0  0  0  0  0  0
   -7.4540   -0.4763    1.1673 C   0  0  0  0  0  0  0  0  0  0  0  0
    7.7537    0.2030   -0.0578 C   0  0  0  0  0  0  0  0  0  0  0  0
    6.7862   -2.0104   -0.0863 C   0  0  0  0  0  0  0  0  0  0  0  0
   -6.5671   -2.2335   -0.2573 C   0  0  0  0  0  0  0  0  0  0  0  0
    7.8688   -1.1624   -0.3186 C   0  0  0  0  0  0  0  0  0  0  0  0
   -7.5354   -1.7631    0.6275 C   0  0  0  0  0  0  0  0  0  0  0  0
    1.6096    1.0427    1.5701 H   0  0  0  0  0  0  0  0  0  0  0  0
    1.9438   -0.5603    2.2443 H   0  0  0  0  0  0  0  0  0  0  0  0
    3.7255    0.5040   -1.4249 H   0  0  0  0  0  0  0  0  0  0  0  0
    2.6669    1.6715   -0.6218 H   0  0  0  0  0  0  0  0  0  0  0  0
    0.7297   -1.6672    0.4219 H   0  0  0  0  0  0  0  0  0  0  0  0
   -0.2901   -0.4606    1.2000 H   0  0  0  0  0  0  0  0  0  0  0  0
    1.4898    0.5941   -2.4838 H   0  0  0  0  0  0  0  0  0  0  0  0
    1.8454   -1.0171   -1.8544 H   0  0  0  0  0  0  0  0  0  0  0  0
    4.1429    0.1271    2.2561 H   0  0  0  0  0  0  0  0  0  0  0  0
    4.1740    1.5247    1.1970 H   0  0  0  0  0  0  0  0  0  0  0  0
   -1.7733    1.0542    0.4953 H   0  0  0  0  0  0  0  0  0  0  0  0
   -2.1380   -0.6064   -0.0383 H   0  0  0  0  0  0  0  0  0  0  0  0
   -3.0388    1.9436   -1.4774 H   0  0  0  0  0  0  0  0  0  0  0  0
   -3.4011    0.3105   -1.9961 H   0  0  0  0  0  0  0  0  0  0  0  0
   -4.4592    2.9681    0.7000 H   0  0  0  0  0  0  0  0  0  0  0  0
    4.7621   -2.1747    0.5919 H   0  0  0  0  0  0  0  0  0  0  0  0
   -6.5667    2.1800    1.7864 H   0  0  0  0  0  0  0  0  0  0  0  0
   -4.7383   -1.8107   -1.3195 H   0  0  0  0  0  0  0  0  0  0  0  0
   -8.2083   -0.1109    1.8561 H   0  0  0  0  0  0  0  0  0  0  0  0
    8.5965    0.8635   -0.2387 H   0  0  0  0  0  0  0  0  0  0  0  0
    6.8770   -3.0740   -0.2868 H   0  0  0  0  0  0  0  0  0  0  0  0
   -6.6516   -3.2379   -0.6637 H   0  0  0  0  0  0  0  0  0  0  0  0
   -8.3675   -2.4059    0.9032 H   0  0  0  0  0  0  0  0  0  0  0  0
    8.8017   -1.5652   -0.7020 H   0  0  0  0  0  0  0  0  0  0  0  0
  1 19  1  0  0  0  0
  2 11  2  0  0  0  0
  3  6  1  0  0  0  0
  3  7  1  0  0  0  0
  3 10  1  0  0  0  0
  4  8  1  0  0  0  0
  4  9  1  0  0  0  0
  4 11  1  0  0  0  0
  5 17  1  0  0  0  0
  5 18  1  0  0  0  0
  5 44  1  0  0  0  0
  6  8  1  0  0  0  0
  6 28  1  0  0  0  0
  6 29  1  0  0  0  0
  7  9  1  0  0  0  0
  7 30  1  0  0  0  0
  7 31  1  0  0  0  0
  8 32  1  0  0  0  0
  8 33  1  0  0  0  0
  9 34  1  0  0  0  0
  9 35  1  0  0  0  0
 10 14  1  0  0  0  0
 10 36  1  0  0  0  0
 10 37  1  0  0  0  0
 11 12  1  0  0  0  0
 12 13  1  0  0  0  0
 12 38  1  0  0  0  0
 12 39  1  0  0  0  0
 13 15  1  0  0  0  0
 13 40  1  0  0  0  0
 13 41  1  0  0  0  0
 14 19  1  0  0  0  0
 14 20  2  0  0  0  0
 15 16  1  0  0  0  0
 15 18  2  0  0  0  0
 16 17  1  0  0  0  0
 16 21  2  0  0  0  0
 17 22  2  0  0  0  0
 18 42  1  0  0  0  0
 19 23  2  0  0  0  0
 20 24  1  0  0  0  0
 20 43  1  0  0  0  0
 21 25  1  0  0  0  0
 21 45  1  0  0  0  0
 22 27  1  0  0  0  0
 22 46  1  0  0  0  0
 23 26  1  0  0  0  0
 23 47  1  0  0  0  0
 24 26  2  0  0  0  0
 24 48  1  0  0  0  0
 25 27  2  0  0  0  0
 25 49  1  0  0  0  0
 26 51  1  0  0  0  0
 27 50  1  0  0  0  0
M  END
> <PUBCHEM_COMPOUND_CID>
17395766

> <PUBCHEM_CONFORMER_RMSD>
1.4

> <PUBCHEM_CONFORMER_DIVERSEORDER>
1
22
25
56
28
23
32
49
74
27
39
48
12
38
70
4
46
20
54
31
30
2
76
45
66
59
57
13
24
10
33
29
73
50
15
69
53
17
37
9
41
16
75
19
14
55
62
72
60
18
40
65
43
36
21
67
5
52
51
35
71
11
7
34
44
58
68
63
26
3
8
47
61
42
6
64

> <PUBCHEM_MMFF94_PARTIAL_CHARGES>
36
1 -0.19
10 0.41
11 0.57
12 0.06
13 0.18
14 -0.14
15 -0.18
17 -0.15
18 -0.3
19 0.19
2 -0.57
20 -0.15
21 -0.15
22 -0.15
23 -0.15
24 -0.15
25 -0.15
26 -0.15
27 -0.15
3 -0.81
4 -0.66
42 0.15
43 0.15
44 0.27
45 0.15
46 0.15
47 0.15
48 0.15
49 0.15
5 0.03
50 0.15
51 0.15
6 0.27
7 0.27
8 0.3
9 0.3

> <PUBCHEM_EFFECTIVE_ROTOR_COUNT>
7.2

> <PUBCHEM_PHARMACOPHORE_FEATURES>
8
1 2 acceptor
1 3 cation
1 5 cation
1 5 donor
5 5 15 16 17 18 rings
6 14 19 20 23 24 26 rings
6 16 17 21 22 25 27 rings
6 3 4 6 7 8 9 rings

> <PUBCHEM_HEAVY_ATOM_COUNT>
27

> <PUBCHEM_ATOM_DEF_STEREO_COUNT>
0

> <PUBCHEM_ATOM_UDEF_STEREO_COUNT>
0

> <PUBCHEM_BOND_DEF_STEREO_COUNT>
0

> <PUBCHEM_BOND_UDEF_STEREO_COUNT>
0

> <PUBCHEM_ISOTOPIC_ATOM_COUNT>
0

> <PUBCHEM_COMPONENT_COUNT>
1

> <PUBCHEM_CACTVS_TAUTO_COUNT>
1

> <PUBCHEM_CONFORMER_ID>
0109703600000001

> <PUBCHEM_MMFF94_ENERGY>
53.7004

> <PUBCHEM_FEATURE_SELFOVERLAP>
40.686

> <PUBCHEM_SHAPE_FINGERPRINT>
10 15 17531246145571060253
10258705 36 18334847355526276246
10299344 5 18411136944027395834
11135926 11 14707207751166862253
11315181 36 18413671310467407177
12166972 35 18413387627097349904
12596602 18 18408888451138159881
13177829 20 18410293588317319193
13668630 136 17203609272864797859
13782708 43 17702675508910478442
13914758 101 8574715706468475046
14251764 18 18343580728881298230
14344974 204 18042405725586662135
1454969 45 16343984715090536478
14849402 71 18265051345094744776
14933364 13 18333452049525944280
15183329 4 14417853644082453664
15301273 46 18272655683449258125
15352257 5 18413108385529980850
15716309 27 18408042905580018895
15979999 66 13686293556704006303
17093844 174 7925908188975116037
17780758 139 18410292519898954637
18335252 98 18413671305971895434
19611394 137 18041277665278269617
20028762 73 17917711292573962027
21095086 128 18273496793245022458
21130935 74 18411982494160156586
21150785 3 12967129410750023991
21267235 1 17418089919241229607
21756936 100 6555413137726443021
21774942 28 8430326739923963074
22224240 67 17846781802008337346
23389318 12 16702296828657446998
23559900 14 12607393370112774621
23569943 247 17699859719919912834
2747138 104 17561360677586064681
2838139 119 15285367231639214305
3009799 131 8430313550126389134
3178227 256 16805321076463901090
328311 84 18260547844709551006
3383291 50 17346591950936738251
3633792 109 9367355842435344620
3663271 9 18408886260778334553
397830 11 18187079585336829967
445580 167 17275098423596293654
4760202 70 18125162628217540101
5104073 3 17677319654282673175
5385378 56 14851596709058389748
5969126 39 16200441273351178063
9953998 17 18334572452539143457

> <PUBCHEM_SHAPE_MULTIPOLES>
527.56
27.11
1.8
1.37
7.12
0.41
0.4
8.2
-6.72
-1.37
-0.1
-0.48
-0.32
0.12

> <PUBCHEM_SHAPE_SELFOVERLAP>
1140.088

> <PUBCHEM_SHAPE_VOLUME>
289.8

> <PUBCHEM_COORDINATE_TYPE>
2
5
10

$$$$

