3915
  -OEChem-06251223453D

 60 63  0     1  0  0  0  0  0999 V2000
   -8.9699   -1.1313   -0.2582 F   0  0  0  0  0  0  0  0  0  0  0  0
    4.4240   -2.5264    0.7807 O   0  0  0  0  0  0  0  0  0  0  0  0
    3.2711   -2.4875   -1.1852 O   0  0  0  0  0  0  0  0  0  0  0  0
    0.7859    0.1364    0.1151 N   0  0  2  0  0  0  0  0  0  0  0  0
   -3.5534    3.1559    0.5170 N   0  0  0  0  0  0  0  0  0  0  0  0
   -0.6345   -0.2082    0.0646 C   0  0  0  0  0  0  0  0  0  0  0  0
    3.7168   -0.4048    0.0011 C   0  0  2  0  0  0  0  0  0  0  0  0
    2.9235    0.2617   -1.1757 C   0  0  1  0  0  0  0  0  0  0  0  0
    1.4374   -0.1703   -1.1639 C   0  0  0  0  0  0  0  0  0  0  0  0
    2.9288   -0.1845    1.3213 C   0  0  0  0  0  0  0  0  0  0  0  0
    1.4467   -0.5684    1.2176 C   0  0  0  0  0  0  0  0  0  0  0  0
   -1.3107    0.1877    1.3767 C   0  0  0  0  0  0  0  0  0  0  0  0
   -1.3128    0.4767   -1.1218 C   0  0  0  0  0  0  0  0  0  0  0  0
   -3.5701    0.5328    0.1536 C   0  0  0  0  0  0  0  0  0  0  0  0
   -2.8109   -0.1246    1.3429 C   0  0  0  0  0  0  0  0  0  0  0  0
   -2.8169    0.1838   -1.1630 C   0  0  0  0  0  0  0  0  0  0  0  0
    5.1809    0.0657    0.0512 C   0  0  0  0  0  0  0  0  0  0  0  0
    3.0133    1.8000   -1.1722 C   0  0  0  0  0  0  0  0  0  0  0  0
    3.7624   -1.9083   -0.2280 C   0  0  0  0  0  0  0  0  0  0  0  0
   -5.0409    0.0796    0.0413 C   0  0  0  0  0  0  0  0  0  0  0  0
   -3.5607    2.0066    0.3578 C   0  0  0  0  0  0  0  0  0  0  0  0
    6.0090   -0.1338   -1.0495 C   0  0  0  0  0  0  0  0  0  0  0  0
    5.6682    0.6882    1.1967 C   0  0  0  0  0  0  0  0  0  0  0  0
   -5.8459    0.5912   -0.9715 C   0  0  0  0  0  0  0  0  0  0  0  0
   -5.5522   -0.8381    0.9540 C   0  0  0  0  0  0  0  0  0  0  0  0
    7.3363    0.2928   -1.0043 C   0  0  0  0  0  0  0  0  0  0  0  0
    6.9955    1.1150    1.2418 C   0  0  0  0  0  0  0  0  0  0  0  0
    7.8294    0.9172    0.1412 C   0  0  0  0  0  0  0  0  0  0  0  0
   -7.1753    0.1814   -1.0730 C   0  0  0  0  0  0  0  0  0  0  0  0
   -6.8816   -1.2481    0.8526 C   0  0  0  0  0  0  0  0  0  0  0  0
   -7.6933   -0.7384   -0.1610 C   0  0  0  0  0  0  0  0  0  0  0  0
   -0.7464   -1.2949   -0.0656 H   0  0  0  0  0  0  0  0  0  0  0  0
    3.3416   -0.0703   -2.1363 H   0  0  0  0  0  0  0  0  0  0  0  0
    0.9918    0.3925   -1.9892 H   0  0  0  0  0  0  0  0  0  0  0  0
    1.3171   -1.2284   -1.4181 H   0  0  0  0  0  0  0  0  0  0  0  0
    2.9655    0.8747    1.6102 H   0  0  0  0  0  0  0  0  0  0  0  0
    3.3691   -0.7449    2.1565 H   0  0  0  0  0  0  0  0  0  0  0  0
    1.3440   -1.6563    1.1158 H   0  0  0  0  0  0  0  0  0  0  0  0
    1.0300   -0.2908    2.1894 H   0  0  0  0  0  0  0  0  0  0  0  0
   -1.1520    1.2517    1.5925 H   0  0  0  0  0  0  0  0  0  0  0  0
   -0.9226   -0.3749    2.2311 H   0  0  0  0  0  0  0  0  0  0  0  0
   -0.9334    0.1113   -2.0813 H   0  0  0  0  0  0  0  0  0  0  0  0
   -1.1451    1.5608   -1.0945 H   0  0  0  0  0  0  0  0  0  0  0  0
   -2.8986   -1.2182    1.2833 H   0  0  0  0  0  0  0  0  0  0  0  0
   -3.2476    0.1851    2.3021 H   0  0  0  0  0  0  0  0  0  0  0  0
   -3.2400    0.7296   -2.0165 H   0  0  0  0  0  0  0  0  0  0  0  0
   -2.9559   -0.8839   -1.3845 H   0  0  0  0  0  0  0  0  0  0  0  0
    4.0434    2.1423   -1.3095 H   0  0  0  0  0  0  0  0  0  0  0  0
    2.4288    2.2208   -1.9981 H   0  0  0  0  0  0  0  0  0  0  0  0
    2.6341    2.2367   -0.2434 H   0  0  0  0  0  0  0  0  0  0  0  0
    5.6467   -0.6201   -1.9506 H   0  0  0  0  0  0  0  0  0  0  0  0
    5.0676    0.8623    2.0817 H   0  0  0  0  0  0  0  0  0  0  0  0
   -5.4682    1.3123   -1.6906 H   0  0  0  0  0  0  0  0  0  0  0  0
   -4.9750   -1.2605    1.7677 H   0  0  0  0  0  0  0  0  0  0  0  0
    4.4631   -3.4980    0.6518 H   0  0  0  0  0  0  0  0  0  0  0  0
    7.9859    0.1383   -1.8608 H   0  0  0  0  0  0  0  0  0  0  0  0
    7.3808    1.5999    2.1339 H   0  0  0  0  0  0  0  0  0  0  0  0
    8.8630    1.2490    0.1766 H   0  0  0  0  0  0  0  0  0  0  0  0
   -7.8081    0.5790   -1.8610 H   0  0  0  0  0  0  0  0  0  0  0  0
   -7.2866   -1.9622    1.5635 H   0  0  0  0  0  0  0  0  0  0  0  0
  1 31  1  0  0  0  0
  2 19  1  0  0  0  0
  2 55  1  0  0  0  0
  3 19  2  0  0  0  0
  4  6  1  0  0  0  0
  4  9  1  0  0  0  0
  4 11  1  0  0  0  0
  5 21  3  0  0  0  0
  6 12  1  0  0  0  0
  6 13  1  0  0  0  0
  6 32  1  0  0  0  0
  7  8  1  0  0  0  0
  7 10  1  0  0  0  0
  7 17  1  0  0  0  0
  7 19  1  0  0  0  0
  8  9  1  0  0  0  0
  8 18  1  0  0  0  0
  8 33  1  0  0  0  0
  9 34  1  0  0  0  0
  9 35  1  0  0  0  0
 10 11  1  0  0  0  0
 10 36  1  0  0  0  0
 10 37  1  0  0  0  0
 11 38  1  0  0  0  0
 11 39  1  0  0  0  0
 12 15  1  0  0  0  0
 12 40  1  0  0  0  0
 12 41  1  0  0  0  0
 13 16  1  0  0  0  0
 13 42  1  0  0  0  0
 13 43  1  0  0  0  0
 14 15  1  0  0  0  0
 14 16  1  0  0  0  0
 14 20  1  0  0  0  0
 14 21  1  0  0  0  0
 15 44  1  0  0  0  0
 15 45  1  0  0  0  0
 16 46  1  0  0  0  0
 16 47  1  0  0  0  0
 17 22  2  0  0  0  0
 17 23  1  0  0  0  0
 18 48  1  0  0  0  0
 18 49  1  0  0  0  0
 18 50  1  0  0  0  0
 20 24  2  0  0  0  0
 20 25  1  0  0  0  0
 22 26  1  0  0  0  0
 22 51  1  0  0  0  0
 23 27  2  0  0  0  0
 23 52  1  0  0  0  0
 24 29  1  0  0  0  0
 24 53  1  0  0  0  0
 25 30  2  0  0  0  0
 25 54  1  0  0  0  0
 26 28  2  0  0  0  0
 26 56  1  0  0  0  0
 27 28  1  0  0  0  0
 27 57  1  0  0  0  0
 28 58  1  0  0  0  0
 29 31  2  0  0  0  0
 29 59  1  0  0  0  0
 30 31  1  0  0  0  0
 30 60  1  0  0  0  0
M  END
> <PUBCHEM_COMPOUND_CID>
3915

> <PUBCHEM_CONFORMER_RMSD>
0.8

> <PUBCHEM_CONFORMER_DIVERSEORDER>
1
32
72
91
63
55
76
88
84
40
58
51
70
95
94
80
30
69
64
47
75
11
87
82
2
59
48
71
57
38
37
83
93
77
79
33
56
54
13
86
89
42
6
66
18
73
65
81
52
92
46
60
35
12
8
36
78
61
14
21
3
62
90
67
45
20
68
53
26
27
24
85
41
44
74
49
50
25
10
16
34
29
31
9
5
28
19
23
39
43
17
15
7
22
4

> <PUBCHEM_MMFF94_PARTIAL_CHARGES>
34
1 -0.19
11 0.27
14 0.34
17 -0.14
19 0.66
2 -0.65
20 -0.14
21 0.36
22 -0.15
23 -0.15
24 -0.15
25 -0.15
26 -0.15
27 -0.15
28 -0.15
29 -0.15
3 -0.57
30 -0.15
31 0.19
4 -0.81
5 -0.56
51 0.15
52 0.15
53 0.15
54 0.15
55 0.5
56 0.15
57 0.15
58 0.15
59 0.15
6 0.27
60 0.15
7 0.2
9 0.27

> <PUBCHEM_EFFECTIVE_ROTOR_COUNT>
6.4

> <PUBCHEM_PHARMACOPHORE_FEATURES>
9
1 2 acceptor
1 3 acceptor
1 4 cation
1 5 acceptor
3 2 3 19 anion
6 17 22 23 26 27 28 rings
6 20 24 25 29 30 31 rings
6 4 7 8 9 10 11 rings
6 6 12 13 14 15 16 rings

> <PUBCHEM_HEAVY_ATOM_COUNT>
31

> <PUBCHEM_ATOM_DEF_STEREO_COUNT>
0

> <PUBCHEM_ATOM_UDEF_STEREO_COUNT>
2

> <PUBCHEM_BOND_DEF_STEREO_COUNT>
0

> <PUBCHEM_BOND_UDEF_STEREO_COUNT>
0

> <PUBCHEM_ISOTOPIC_ATOM_COUNT>
0

> <PUBCHEM_COMPONENT_COUNT>
1

> <PUBCHEM_CACTVS_TAUTO_COUNT>
1

> <PUBCHEM_CONFORMER_ID>
00000F4B00000001

> <PUBCHEM_MMFF94_ENERGY>
90.7259

> <PUBCHEM_FEATURE_SELFOVERLAP>
45.725

> <PUBCHEM_SHAPE_FINGERPRINT>
10 15 18334580126775425474
10162869 55 18270968942776775783
10299344 5 15140676973148644497
10319688 140 17459460225638094118
10595046 47 18339360876273430897
106641 1 18335422331064975636
10674148 151 6050448107017134422
11089746 13 16486972886489041897
11135926 11 6627471757144229268
11181472 205 17677605544296061993
11315181 36 17989484113685448753
11719270 70 17632580453018174730
12166972 35 17458062659974151480
12236239 1 18202003265440231195
12516196 113 18130788966482048325
13073987 5 18337672022118284000
13533116 47 17822291339846118574
13835254 42 18337107994698621408
13914758 101 15554455110672988565
14068700 675 16702302347690377605
14117953 113 11240004463927681530
14118638 360 18336263534806481120
14170010 4 18411981347936287596
14251764 18 16559032679592306532
15142383 8 12751519579080109558
15183329 4 16702305650847086221
15419008 47 18187369826358447585
15461852 350 17274818038992863947
1577012 14 18341048626907325929
15840311 113 17894911781575891160
15849732 13 18334295348889788852
18335252 98 18407758132073953035
18365409 1 18116434748278202566
18608769 82 18041282071588336423
18681886 176 17988364772077453913
20105231 36 16443339853972396799
21130935 74 18131073787486384794
21150785 3 18409449180503486567
21267235 1 15285355119730894290
21792961 116 17458340875407761206
22224240 67 18202004301102421130
23516275 137 16371263585507103679
23522609 53 15141507044303505154
23559900 14 18130790023830064585
23569943 247 17769093785298783962
24771293 8 17418371415434704364
249057 3 18271526399377113951
3178227 256 7276831265109999028
32027 91 17413606278427961874
335352 9 16200431347117500558
34797466 226 17458061552336532660
3545911 37 5328744062842791189
3633792 109 17632581582773511797
4325135 7 18412825767875126527
4339292 15 16701449063192377251
4340502 62 18333731308727018998
5104073 3 18265050408732832496
6004065 56 18201998802869334756
9663363 56 18335141974056297425

> <PUBCHEM_SHAPE_MULTIPOLES>
608.99
24.08
1.8
1.43
12.67
0.13
-0.05
-1.28
0.83
-0.12
-0.09
-0.62
0.04
0.51

> <PUBCHEM_SHAPE_SELFOVERLAP>
1315.257

> <PUBCHEM_SHAPE_VOLUME>
332.4

> <PUBCHEM_COORDINATE_TYPE>
2
5
10

$$$$

