6936
  -OEChem-06261201362D

 21 21  0     0  0  0  0  0  0999 V2000
    6.0010   -1.6550    0.0000 Cl  0  0  0  0  0  0  0  0  0  0  0  0
    4.2690    1.3450    0.0000 S   0  0  0  0  0  0  0  0  0  0  0  0
    4.2690    2.3450    0.0000 O   0  0  0  0  0  0  0  0  0  0  0  0
    5.2690    1.3450    0.0000 O   0  0  0  0  0  0  0  0  0  0  0  0
    3.2690    1.3450    0.0000 O   0  0  0  0  0  0  0  0  0  0  0  0
    2.5369    0.3450    0.0000 N   0  0  0  0  0  0  0  0  0  0  0  0
    4.2690    0.3450    0.0000 C   0  0  0  0  0  0  0  0  0  0  0  0
    3.4030   -0.1550    0.0000 C   0  0  0  0  0  0  0  0  0  0  0  0
    4.2690   -1.6550    0.0000 C   0  0  0  0  0  0  0  0  0  0  0  0
    3.4030   -1.1550    0.0000 C   0  0  0  0  0  0  0  0  0  0  0  0
    5.1350   -0.1550    0.0000 C   0  0  0  0  0  0  0  0  0  0  0  0
    5.1350   -1.1550    0.0000 C   0  0  0  0  0  0  0  0  0  0  0  0
    4.2690   -2.6550    0.0000 C   0  0  0  0  0  0  0  0  0  0  0  0
    2.8660   -1.4650    0.0000 H   0  0  0  0  0  0  0  0  0  0  0  0
    5.6720    0.1550    0.0000 H   0  0  0  0  0  0  0  0  0  0  0  0
    3.6490   -2.6550    0.0000 H   0  0  0  0  0  0  0  0  0  0  0  0
    4.2690   -3.2750    0.0000 H   0  0  0  0  0  0  0  0  0  0  0  0
    4.8890   -2.6550    0.0000 H   0  0  0  0  0  0  0  0  0  0  0  0
    2.0000    0.0350    0.0000 H   0  0  0  0  0  0  0  0  0  0  0  0
    2.5369    0.9650    0.0000 H   0  0  0  0  0  0  0  0  0  0  0  0
    4.8059    2.6550    0.0000 H   0  0  0  0  0  0  0  0  0  0  0  0
  1 12  1  0  0  0  0
  2  3  1  0  0  0  0
  2  4  2  0  0  0  0
  2  5  2  0  0  0  0
  2  7  1  0  0  0  0
  3 21  1  0  0  0  0
  6  8  1  0  0  0  0
  6 19  1  0  0  0  0
  6 20  1  0  0  0  0
  7  8  2  0  0  0  0
  7 11  1  0  0  0  0
  8 10  1  0  0  0  0
  9 10  2  0  0  0  0
  9 12  1  0  0  0  0
  9 13  1  0  0  0  0
 10 14  1  0  0  0  0
 11 12  2  0  0  0  0
 11 15  1  0  0  0  0
 13 16  1  0  0  0  0
 13 17  1  0  0  0  0
 13 18  1  0  0  0  0
M  END
> <PUBCHEM_COMPOUND_CID>
6936

> <PUBCHEM_COMPOUND_CANONICALIZED>
1

> <PUBCHEM_CACTVS_COMPLEXITY>
274

> <PUBCHEM_CACTVS_HBOND_ACCEPTOR>
4

> <PUBCHEM_CACTVS_HBOND_DONOR>
2

> <PUBCHEM_CACTVS_ROTATABLE_BOND>
1

> <PUBCHEM_CACTVS_SUBSKEYS>
AAADccBiMABEAAAAAAAAAAAAAAAAAAAAAAAwAAAAAAAAAAABAAAAHAYQCAAADAqBWCAywYBAAIKAAiRCQHDCAEAgBwAAiBwAZogIICKBk5GAIABgkAAIyAcQgAAOEABAQBABAQAgAICAIAICAAAAAAAAAA==

> <PUBCHEM_IUPAC_OPENEYE_NAME>
2-amino-5-chloro-4-methyl-benzenesulfonic acid

> <PUBCHEM_IUPAC_CAS_NAME>
2-amino-5-chloro-4-methylbenzenesulfonic acid

> <PUBCHEM_IUPAC_NAME>
2-amino-5-chloro-4-methylbenzenesulfonic acid

> <PUBCHEM_IUPAC_SYSTEMATIC_NAME>
2-azanyl-5-chloranyl-4-methyl-benzenesulfonic acid

> <PUBCHEM_IUPAC_TRADITIONAL_NAME>
2-amino-5-chloro-4-methyl-besylic acid

> <PUBCHEM_IUPAC_INCHI>
InChI=1S/C7H8ClNO3S/c1-4-2-6(9)7(3-5(4)8)13(10,11)12/h2-3H,9H2,1H3,(H,10,11,12)

> <PUBCHEM_IUPAC_INCHIKEY>
VYZCFAPUHSSYCC-UHFFFAOYSA-N

> <PUBCHEM_XLOGP3_AA>
1.5

> <PUBCHEM_EXACT_MASS>
220.991342

> <PUBCHEM_MOLECULAR_FORMULA>
C7H8ClNO3S

> <PUBCHEM_MOLECULAR_WEIGHT>
221.66132

> <PUBCHEM_OPENEYE_CAN_SMILES>
CC1=CC(=C(C=C1Cl)S(=O)(=O)O)N

> <PUBCHEM_OPENEYE_ISO_SMILES>
CC1=CC(=C(C=C1Cl)S(=O)(=O)O)N

> <PUBCHEM_CACTVS_TPSA>
88.8

> <PUBCHEM_MONOISOTOPIC_WEIGHT>
220.991342

> <PUBCHEM_TOTAL_CHARGE>
0

> <PUBCHEM_HEAVY_ATOM_COUNT>
13

> <PUBCHEM_ATOM_DEF_STEREO_COUNT>
0

> <PUBCHEM_ATOM_UDEF_STEREO_COUNT>
0

> <PUBCHEM_BOND_DEF_STEREO_COUNT>
0

> <PUBCHEM_BOND_UDEF_STEREO_COUNT>
0

> <PUBCHEM_ISOTOPIC_ATOM_COUNT>
0

> <PUBCHEM_COMPONENT_COUNT>
1

> <PUBCHEM_CACTVS_TAUTO_COUNT>
1

> <PUBCHEM_COORDINATE_TYPE>
1
5
255

> <PUBCHEM_BONDANNOTATIONS>
11  12  8
7  11  8
7  8  8
8  10  8
9  10  8
9  12  8

$$$$

