17396030
  -OEChem-06241222532D

 56 60  0     0  0  0  0  0  0999 V2000
    2.5836    1.4453    0.0000 O   0  0  0  0  0  0  0  0  0  0  0  0
    2.5836    3.0547    0.0000 O   0  0  0  0  0  0  0  0  0  0  0  0
   10.4580    2.7500    0.0000 O   0  0  0  0  0  0  0  0  0  0  0  0
    7.8600    0.2500    0.0000 O   0  0  0  0  0  0  0  0  0  0  0  0
    9.5920    1.2500    0.0000 N   0  0  0  0  0  0  0  0  0  0  0  0
    9.5920    0.2500    0.0000 N   0  0  0  0  0  0  0  0  0  0  0  0
    6.9939    1.7500    0.0000 N   0  0  0  0  0  0  0  0  0  0  0  0
   10.4580   -0.2500    0.0000 C   0  0  0  0  0  0  0  0  0  0  0  0
   11.3241    0.2500    0.0000 C   0  0  0  0  0  0  0  0  0  0  0  0
   10.4580   -1.2500    0.0000 C   0  0  0  0  0  0  0  0  0  0  0  0
   11.3241    1.2500    0.0000 C   0  0  0  0  0  0  0  0  0  0  0  0
   10.4580    1.7500    0.0000 C   0  0  0  0  0  0  0  0  0  0  0  0
    8.7260    1.7500    0.0000 C   0  0  0  0  0  0  0  0  0  0  0  0
    9.5920   -1.7500    0.0000 C   0  0  0  0  0  0  0  0  0  0  0  0
   11.3241   -1.7500    0.0000 C   0  0  0  0  0  0  0  0  0  0  0  0
   12.2180   -0.2847    0.0000 C   0  0  0  0  0  0  0  0  0  0  0  0
    6.1279    1.2500    0.0000 C   0  0  0  0  0  0  0  0  0  0  0  0
   12.2180    1.7847    0.0000 C   0  0  0  0  0  0  0  0  0  0  0  0
   11.3241   -2.7500    0.0000 C   0  0  0  0  0  0  0  0  0  0  0  0
    5.2619    1.7500    0.0000 C   0  0  0  0  0  0  0  0  0  0  0  0
    7.8600    1.2500    0.0000 C   0  0  0  0  0  0  0  0  0  0  0  0
    9.5920   -2.7500    0.0000 C   0  0  0  0  0  0  0  0  0  0  0  0
   10.4580   -3.2500    0.0000 C   0  0  0  0  0  0  0  0  0  0  0  0
   13.1241    0.2292    0.0000 C   0  0  0  0  0  0  0  0  0  0  0  0
    8.7260   -1.2500    0.0000 C   0  0  0  0  0  0  0  0  0  0  0  0
    3.5298    1.7500    0.0000 C   0  0  0  0  0  0  0  0  0  0  0  0
   13.1241    1.2708    0.0000 C   0  0  0  0  0  0  0  0  0  0  0  0
    4.3958    1.2500    0.0000 C   0  0  0  0  0  0  0  0  0  0  0  0
    3.5298    2.7500    0.0000 C   0  0  0  0  0  0  0  0  0  0  0  0
    5.2619    2.7500    0.0000 C   0  0  0  0  0  0  0  0  0  0  0  0
    4.3958    3.2500    0.0000 C   0  0  0  0  0  0  0  0  0  0  0  0
   12.1901   -3.2500    0.0000 C   0  0  0  0  0  0  0  0  0  0  0  0
    2.0000    2.2500    0.0000 C   0  0  0  0  0  0  0  0  0  0  0  0
    9.1245    2.2250    0.0000 H   0  0  0  0  0  0  0  0  0  0  0  0
    8.3274    2.2250    0.0000 H   0  0  0  0  0  0  0  0  0  0  0  0
   11.8610   -1.4400    0.0000 H   0  0  0  0  0  0  0  0  0  0  0  0
   12.2108   -0.9046    0.0000 H   0  0  0  0  0  0  0  0  0  0  0  0
    5.7294    0.7751    0.0000 H   0  0  0  0  0  0  0  0  0  0  0  0
    6.5264    0.7751    0.0000 H   0  0  0  0  0  0  0  0  0  0  0  0
   12.2108    2.4046    0.0000 H   0  0  0  0  0  0  0  0  0  0  0  0
    9.0551   -3.0600    0.0000 H   0  0  0  0  0  0  0  0  0  0  0  0
    6.9939    2.3700    0.0000 H   0  0  0  0  0  0  0  0  0  0  0  0
   10.4580   -3.8700    0.0000 H   0  0  0  0  0  0  0  0  0  0  0  0
   13.6598   -0.0829    0.0000 H   0  0  0  0  0  0  0  0  0  0  0  0
    9.0360   -0.7131    0.0000 H   0  0  0  0  0  0  0  0  0  0  0  0
    8.1890   -0.9400    0.0000 H   0  0  0  0  0  0  0  0  0  0  0  0
    8.4160   -1.7869    0.0000 H   0  0  0  0  0  0  0  0  0  0  0  0
    4.3958    0.6300    0.0000 H   0  0  0  0  0  0  0  0  0  0  0  0
   13.6598    1.5829    0.0000 H   0  0  0  0  0  0  0  0  0  0  0  0
    5.7988    3.0600    0.0000 H   0  0  0  0  0  0  0  0  0  0  0  0
    4.3958    3.8700    0.0000 H   0  0  0  0  0  0  0  0  0  0  0  0
   11.8801   -3.7869    0.0000 H   0  0  0  0  0  0  0  0  0  0  0  0
   12.7270   -3.5600    0.0000 H   0  0  0  0  0  0  0  0  0  0  0  0
   12.5001   -2.7131    0.0000 H   0  0  0  0  0  0  0  0  0  0  0  0
    1.5391    2.6647    0.0000 H   0  0  0  0  0  0  0  0  0  0  0  0
    1.5391    1.8353    0.0000 H   0  0  0  0  0  0  0  0  0  0  0  0
  1 26  1  0  0  0  0
  1 33  1  0  0  0  0
  2 29  1  0  0  0  0
  2 33  1  0  0  0  0
  3 12  2  0  0  0  0
  4 21  2  0  0  0  0
  5  6  1  0  0  0  0
  5 12  1  0  0  0  0
  5 13  1  0  0  0  0
  6  8  2  0  0  0  0
  7 17  1  0  0  0  0
  7 21  1  0  0  0  0
  7 42  1  0  0  0  0
  8  9  1  0  0  0  0
  8 10  1  0  0  0  0
  9 11  1  0  0  0  0
  9 16  2  0  0  0  0
 10 14  2  0  0  0  0
 10 15  1  0  0  0  0
 11 12  1  0  0  0  0
 11 18  2  0  0  0  0
 13 21  1  0  0  0  0
 13 34  1  0  0  0  0
 13 35  1  0  0  0  0
 14 22  1  0  0  0  0
 14 25  1  0  0  0  0
 15 19  2  0  0  0  0
 15 36  1  0  0  0  0
 16 24  1  0  0  0  0
 16 37  1  0  0  0  0
 17 20  1  0  0  0  0
 17 38  1  0  0  0  0
 17 39  1  0  0  0  0
 18 27  1  0  0  0  0
 18 40  1  0  0  0  0
 19 23  1  0  0  0  0
 19 32  1  0  0  0  0
 20 28  2  0  0  0  0
 20 30  1  0  0  0  0
 22 23  2  0  0  0  0
 22 41  1  0  0  0  0
 23 43  1  0  0  0  0
 24 27  2  0  0  0  0
 24 44  1  0  0  0  0
 25 45  1  0  0  0  0
 25 46  1  0  0  0  0
 25 47  1  0  0  0  0
 26 28  1  0  0  0  0
 26 29  2  0  0  0  0
 27 49  1  0  0  0  0
 28 48  1  0  0  0  0
 29 31  1  0  0  0  0
 30 31  2  0  0  0  0
 30 50  1  0  0  0  0
 31 51  1  0  0  0  0
 32 52  1  0  0  0  0
 32 53  1  0  0  0  0
 32 54  1  0  0  0  0
 33 55  1  0  0  0  0
 33 56  1  0  0  0  0
M  END
> <PUBCHEM_COMPOUND_CID>
17396030

> <PUBCHEM_COMPOUND_CANONICALIZED>
1

> <PUBCHEM_CACTVS_COMPLEXITY>
771

> <PUBCHEM_CACTVS_HBOND_ACCEPTOR>
5

> <PUBCHEM_CACTVS_HBOND_DONOR>
1

> <PUBCHEM_CACTVS_ROTATABLE_BOND>
5

> <PUBCHEM_CACTVS_SUBSKEYS>
AAADceB7OAAAAAAAAAAAAAAAAAAAASAAAAAwYMEAAAAAAEiBUAAAHgAYAAAADAzBmAcyDoLABACoAyFyEACSCAAkIAAaiIGujNgdZrKEtTu0MSpk3hGOqYe42NKO4AADAAAQQADAAAYAACCAAAAAAAAAAA==

> <PUBCHEM_IUPAC_OPENEYE_NAME>
N-(1,3-benzodioxol-5-ylmethyl)-2-[4-(2,5-dimethylphenyl)-1-oxo-phthalazin-2-yl]acetamide

> <PUBCHEM_IUPAC_CAS_NAME>
N-(1,3-benzodioxol-5-ylmethyl)-2-[4-(2,5-dimethylphenyl)-1-oxo-2-phthalazinyl]acetamide

> <PUBCHEM_IUPAC_NAME>
N-(1,3-benzodioxol-5-ylmethyl)-2-[4-(2,5-dimethylphenyl)-1-oxophthalazin-2-yl]acetamide

> <PUBCHEM_IUPAC_SYSTEMATIC_NAME>
N-(1,3-benzodioxol-5-ylmethyl)-2-[4-(2,5-dimethylphenyl)-1-oxidanylidene-phthalazin-2-yl]ethanamide

> <PUBCHEM_IUPAC_TRADITIONAL_NAME>
2-[4-(2,5-dimethylphenyl)-1-keto-phthalazin-2-yl]-N-piperonyl-acetamide

> <PUBCHEM_IUPAC_INCHI>
InChI=1S/C26H23N3O4/c1-16-7-8-17(2)21(11-16)25-19-5-3-4-6-20(19)26(31)29(28-25)14-24(30)27-13-18-9-10-22-23(12-18)33-15-32-22/h3-12H,13-15H2,1-2H3,(H,27,30)

> <PUBCHEM_IUPAC_INCHIKEY>
ZEBCZIZJLKXDLW-UHFFFAOYSA-N

> <PUBCHEM_XLOGP3_AA>
4.2

> <PUBCHEM_EXACT_MASS>
441.168856

> <PUBCHEM_MOLECULAR_FORMULA>
C26H23N3O4

> <PUBCHEM_MOLECULAR_WEIGHT>
441.47852

> <PUBCHEM_OPENEYE_CAN_SMILES>
CC1=CC(=C(C=C1)C)C2=NN(C(=O)C3=CC=CC=C32)CC(=O)NCC4=CC5=C(C=C4)OCO5

> <PUBCHEM_OPENEYE_ISO_SMILES>
CC1=CC(=C(C=C1)C)C2=NN(C(=O)C3=CC=CC=C32)CC(=O)NCC4=CC5=C(C=C4)OCO5

> <PUBCHEM_CACTVS_TPSA>
80.2

> <PUBCHEM_MONOISOTOPIC_WEIGHT>
441.168856

> <PUBCHEM_TOTAL_CHARGE>
0

> <PUBCHEM_HEAVY_ATOM_COUNT>
33

> <PUBCHEM_ATOM_DEF_STEREO_COUNT>
0

> <PUBCHEM_ATOM_UDEF_STEREO_COUNT>
0

> <PUBCHEM_BOND_DEF_STEREO_COUNT>
0

> <PUBCHEM_BOND_UDEF_STEREO_COUNT>
0

> <PUBCHEM_ISOTOPIC_ATOM_COUNT>
0

> <PUBCHEM_COMPONENT_COUNT>
1

> <PUBCHEM_CACTVS_TAUTO_COUNT>
2

> <PUBCHEM_COORDINATE_TYPE>
1
5
255

> <PUBCHEM_BONDANNOTATIONS>
10  14  8
10  15  8
11  12  8
11  18  8
14  22  8
15  19  8
16  24  8
18  27  8
19  23  8
20  28  8
20  30  8
22  23  8
24  27  8
26  28  8
26  29  8
29  31  8
30  31  8
5  12  8
5  6  8
6  8  8
8  9  8
9  11  8
9  16  8

$$$$

