17395665
  -OEChem-06241222512D

 50 52  0     1  0  0  0  0  0999 V2000
    2.0000   -5.5000    0.0000 Cl  0  0  0  0  0  0  0  0  0  0  0  0
    7.1962    5.5000    0.0000 O   0  0  0  0  0  0  0  0  0  0  0  0
    5.4641   -0.5000    0.0000 O   0  0  0  0  0  0  0  0  0  0  0  0
    7.1962    3.5000    0.0000 N   0  0  0  0  0  0  0  0  0  0  0  0
    5.4641   -2.5000    0.0000 N   0  0  3  0  0  0  0  0  0  0  0  0
    7.1962   -0.5000    0.0000 N   0  0  0  0  0  0  0  0  0  0  0  0
    6.3301    4.0000    0.0000 C   0  0  0  0  0  0  0  0  0  0  0  0
    8.0622    4.0000    0.0000 C   0  0  0  0  0  0  0  0  0  0  0  0
    6.3301    5.0000    0.0000 C   0  0  0  0  0  0  0  0  0  0  0  0
    8.0622    5.0000    0.0000 C   0  0  0  0  0  0  0  0  0  0  0  0
    7.1962    2.5000    0.0000 C   0  0  0  0  0  0  0  0  0  0  0  0
    6.3301    2.0000    0.0000 C   0  0  0  0  0  0  0  0  0  0  0  0
    8.0622    2.0000    0.0000 C   0  0  0  0  0  0  0  0  0  0  0  0
    7.1962    0.5000    0.0000 C   0  0  0  0  0  0  0  0  0  0  0  0
    6.3301    1.0000    0.0000 C   0  0  0  0  0  0  0  0  0  0  0  0
    8.0622    1.0000    0.0000 C   0  0  0  0  0  0  0  0  0  0  0  0
    6.3301   -2.0000    0.0000 C   0  0  0  0  0  0  0  0  0  0  0  0
    5.4641   -3.5000    0.0000 C   0  0  0  0  0  0  0  0  0  0  0  0
    6.3301   -1.0000    0.0000 C   0  0  0  0  0  0  0  0  0  0  0  0
    4.5981   -4.0000    0.0000 C   0  0  0  0  0  0  0  0  0  0  0  0
    4.5981   -2.0000    0.0000 C   0  0  0  0  0  0  0  0  0  0  0  0
    3.7320   -3.5000    0.0000 C   0  0  0  0  0  0  0  0  0  0  0  0
    4.5981   -5.0000    0.0000 C   0  0  0  0  0  0  0  0  0  0  0  0
    2.8660   -4.0000    0.0000 C   0  0  0  0  0  0  0  0  0  0  0  0
    3.7320   -5.5000    0.0000 C   0  0  0  0  0  0  0  0  0  0  0  0
    2.8660   -5.0000    0.0000 C   0  0  0  0  0  0  0  0  0  0  0  0
    5.7196    4.1077    0.0000 H   0  0  0  0  0  0  0  0  0  0  0  0
    8.2742    3.4174    0.0000 H   0  0  0  0  0  0  0  0  0  0  0  0
    8.6728    4.1077    0.0000 H   0  0  0  0  0  0  0  0  0  0  0  0
    6.1181    3.4174    0.0000 H   0  0  0  0  0  0  0  0  0  0  0  0
    8.6728    4.8923    0.0000 H   0  0  0  0  0  0  0  0  0  0  0  0
    8.2742    5.5826    0.0000 H   0  0  0  0  0  0  0  0  0  0  0  0
    6.1181    5.5826    0.0000 H   0  0  0  0  0  0  0  0  0  0  0  0
    5.7196    4.8923    0.0000 H   0  0  0  0  0  0  0  0  0  0  0  0
    5.7932    2.3100    0.0000 H   0  0  0  0  0  0  0  0  0  0  0  0
    8.5991    2.3100    0.0000 H   0  0  0  0  0  0  0  0  0  0  0  0
    5.7932    0.6900    0.0000 H   0  0  0  0  0  0  0  0  0  0  0  0
    8.5991    0.6900    0.0000 H   0  0  0  0  0  0  0  0  0  0  0  0
    6.5422   -2.5826    0.0000 H   0  0  0  0  0  0  0  0  0  0  0  0
    6.9407   -1.8923    0.0000 H   0  0  0  0  0  0  0  0  0  0  0  0
    5.6762   -4.0826    0.0000 H   0  0  0  0  0  0  0  0  0  0  0  0
    6.0747   -3.3923    0.0000 H   0  0  0  0  0  0  0  0  0  0  0  0
    7.7331   -0.8100    0.0000 H   0  0  0  0  0  0  0  0  0  0  0  0
    4.9081   -1.4631    0.0000 H   0  0  0  0  0  0  0  0  0  0  0  0
    4.0611   -1.6900    0.0000 H   0  0  0  0  0  0  0  0  0  0  0  0
    4.2881   -2.5369    0.0000 H   0  0  0  0  0  0  0  0  0  0  0  0
    3.7320   -2.8800    0.0000 H   0  0  0  0  0  0  0  0  0  0  0  0
    5.1350   -5.3100    0.0000 H   0  0  0  0  0  0  0  0  0  0  0  0
    2.3291   -3.6900    0.0000 H   0  0  0  0  0  0  0  0  0  0  0  0
    3.7320   -6.1200    0.0000 H   0  0  0  0  0  0  0  0  0  0  0  0
  1 26  1  0  0  0  0
  2  9  1  0  0  0  0
  2 10  1  0  0  0  0
  3 19  2  0  0  0  0
  4  7  1  0  0  0  0
  4  8  1  0  0  0  0
  4 11  1  0  0  0  0
  5 17  1  0  0  0  0
  5 18  1  0  0  0  0
  5 21  1  0  0  0  0
  6 14  1  0  0  0  0
  6 19  1  0  0  0  0
  6 43  1  0  0  0  0
  7  9  1  0  0  0  0
  7 27  1  0  0  0  0
  7 30  1  0  0  0  0
  8 10  1  0  0  0  0
  8 28  1  0  0  0  0
  8 29  1  0  0  0  0
  9 33  1  0  0  0  0
  9 34  1  0  0  0  0
 10 31  1  0  0  0  0
 10 32  1  0  0  0  0
 11 12  2  0  0  0  0
 11 13  1  0  0  0  0
 12 15  1  0  0  0  0
 12 35  1  0  0  0  0
 13 16  2  0  0  0  0
 13 36  1  0  0  0  0
 14 15  2  0  0  0  0
 14 16  1  0  0  0  0
 15 37  1  0  0  0  0
 16 38  1  0  0  0  0
 17 19  1  0  0  0  0
 17 39  1  0  0  0  0
 17 40  1  0  0  0  0
 18 20  1  0  0  0  0
 18 41  1  0  0  0  0
 18 42  1  0  0  0  0
 20 22  2  0  0  0  0
 20 23  1  0  0  0  0
 21 44  1  0  0  0  0
 21 45  1  0  0  0  0
 21 46  1  0  0  0  0
 22 24  1  0  0  0  0
 22 47  1  0  0  0  0
 23 25  2  0  0  0  0
 23 48  1  0  0  0  0
 24 26  2  0  0  0  0
 24 49  1  0  0  0  0
 25 26  1  0  0  0  0
 25 50  1  0  0  0  0
M  END
> <PUBCHEM_COMPOUND_CID>
17395665

> <PUBCHEM_COMPOUND_CANONICALIZED>
1

> <PUBCHEM_CACTVS_COMPLEXITY>
429

> <PUBCHEM_CACTVS_HBOND_ACCEPTOR>
4

> <PUBCHEM_CACTVS_HBOND_DONOR>
1

> <PUBCHEM_CACTVS_ROTATABLE_BOND>
6

> <PUBCHEM_CACTVS_SUBSKEYS>
AAADceB7MAAEAAAAAAAAAAAAAAAAAAAAAAA8YIAAAAAAAAABQAAAHgIQAAAADArhmCYywIPABACIAiVSUACCAAAhBwAIiACIZogKYCLBk7GXIAhglADYyAcQgAAOBACAAAAAAAAIAQAAAAAAAAAAAAAAAA==

> <PUBCHEM_IUPAC_OPENEYE_NAME>
2-[(4-chlorophenyl)methyl-methyl-amino]-N-(4-morpholinophenyl)acetamide

> <PUBCHEM_IUPAC_CAS_NAME>
2-[(4-chlorophenyl)methyl-methylamino]-N-[4-(4-morpholinyl)phenyl]acetamide

> <PUBCHEM_IUPAC_NAME>
2-[(4-chlorophenyl)methyl-methylamino]-N-(4-morpholin-4-ylphenyl)acetamide

> <PUBCHEM_IUPAC_SYSTEMATIC_NAME>
2-[(4-chlorophenyl)methyl-methyl-amino]-N-(4-morpholin-4-ylphenyl)ethanamide

> <PUBCHEM_IUPAC_TRADITIONAL_NAME>
2-[(4-chlorobenzyl)-methyl-amino]-N-(4-morpholinophenyl)acetamide

> <PUBCHEM_IUPAC_INCHI>
InChI=1S/C20H24ClN3O2/c1-23(14-16-2-4-17(21)5-3-16)15-20(25)22-18-6-8-19(9-7-18)24-10-12-26-13-11-24/h2-9H,10-15H2,1H3,(H,22,25)

> <PUBCHEM_IUPAC_INCHIKEY>
CEOBLRXDIJFPHZ-UHFFFAOYSA-N

> <PUBCHEM_XLOGP3_AA>
3

> <PUBCHEM_EXACT_MASS>
373.155705

> <PUBCHEM_MOLECULAR_FORMULA>
C20H24ClN3O2

> <PUBCHEM_MOLECULAR_WEIGHT>
373.87646

> <PUBCHEM_OPENEYE_CAN_SMILES>
CN(CC1=CC=C(C=C1)Cl)CC(=O)NC2=CC=C(C=C2)N3CCOCC3

> <PUBCHEM_OPENEYE_ISO_SMILES>
CN(CC1=CC=C(C=C1)Cl)CC(=O)NC2=CC=C(C=C2)N3CCOCC3

> <PUBCHEM_CACTVS_TPSA>
44.8

> <PUBCHEM_MONOISOTOPIC_WEIGHT>
373.155705

> <PUBCHEM_TOTAL_CHARGE>
0

> <PUBCHEM_HEAVY_ATOM_COUNT>
26

> <PUBCHEM_ATOM_DEF_STEREO_COUNT>
0

> <PUBCHEM_ATOM_UDEF_STEREO_COUNT>
0

> <PUBCHEM_BOND_DEF_STEREO_COUNT>
0

> <PUBCHEM_BOND_UDEF_STEREO_COUNT>
0

> <PUBCHEM_ISOTOPIC_ATOM_COUNT>
0

> <PUBCHEM_COMPONENT_COUNT>
1

> <PUBCHEM_CACTVS_TAUTO_COUNT>
3

> <PUBCHEM_COORDINATE_TYPE>
1
5
255

> <PUBCHEM_BONDANNOTATIONS>
11  12  8
11  13  8
12  15  8
13  16  8
14  15  8
14  16  8
20  22  8
20  23  8
22  24  8
23  25  8
24  26  8
25  26  8

$$$$

