854013
  -OEChem-06241222462D

 32 32  0     0  0  0  0  0  0999 V2000
    4.5823   -0.5469    0.0000 S   0  0  0  0  0  0  0  0  0  0  0  0
    5.8424    0.7132    0.0000 S   0  0  0  0  0  0  0  0  0  0  0  0
    4.9483    2.4920    0.0000 O   0  0  0  0  0  0  0  0  0  0  0  0
    3.4013   -2.2694    0.0000 O   0  0  0  0  0  0  0  0  0  0  0  0
    3.2163    2.4920    0.0000 O   0  0  0  0  0  0  0  0  0  0  0  0
    2.0000   -1.2514    0.0000 O   0  0  0  0  0  0  0  0  0  0  0  0
    7.3287   -0.6250    0.0000 N   0  0  0  0  0  0  0  0  0  0  0  0
    3.2733    0.4042    0.0000 C   0  0  0  0  0  0  0  0  0  0  0  0
    4.0823    0.9920    0.0000 C   0  0  0  0  0  0  0  0  0  0  0  0
    3.5823   -0.5469    0.0000 C   0  0  0  0  0  0  0  0  0  0  0  0
    4.8913    0.4042    0.0000 C   0  0  0  0  0  0  0  0  0  0  0  0
    2.3222    0.7132    0.0000 C   0  0  0  0  0  0  0  0  0  0  0  0
    4.0823    1.9920    0.0000 C   0  0  0  0  0  0  0  0  0  0  0  0
    2.9945   -1.3559    0.0000 C   0  0  0  0  0  0  0  0  0  0  0  0
    4.9483    3.4920    0.0000 C   0  0  0  0  0  0  0  0  0  0  0  0
    2.8135   -3.0784    0.0000 C   0  0  0  0  0  0  0  0  0  0  0  0
    5.8144    3.9920    0.0000 C   0  0  0  0  0  0  0  0  0  0  0  0
    3.2202   -3.9920    0.0000 C   0  0  0  0  0  0  0  0  0  0  0  0
    6.5855    0.0441    0.0000 C   0  0  0  0  0  0  0  0  0  0  0  0
    2.5138    1.3029    0.0000 H   0  0  0  0  0  0  0  0  0  0  0  0
    1.7326    0.9048    0.0000 H   0  0  0  0  0  0  0  0  0  0  0  0
    2.1306    0.1236    0.0000 H   0  0  0  0  0  0  0  0  0  0  0  0
    4.7363    4.0746    0.0000 H   0  0  0  0  0  0  0  0  0  0  0  0
    4.3378    3.3843    0.0000 H   0  0  0  0  0  0  0  0  0  0  0  0
    2.3828   -2.6324    0.0000 H   0  0  0  0  0  0  0  0  0  0  0  0
    2.2995   -3.4251    0.0000 H   0  0  0  0  0  0  0  0  0  0  0  0
    6.1244    3.4550    0.0000 H   0  0  0  0  0  0  0  0  0  0  0  0
    6.3513    4.3020    0.0000 H   0  0  0  0  0  0  0  0  0  0  0  0
    5.5044    4.5289    0.0000 H   0  0  0  0  0  0  0  0  0  0  0  0
    2.6538   -4.2442    0.0000 H   0  0  0  0  0  0  0  0  0  0  0  0
    3.4724   -4.5584    0.0000 H   0  0  0  0  0  0  0  0  0  0  0  0
    3.7866   -3.7398    0.0000 H   0  0  0  0  0  0  0  0  0  0  0  0
  1 10  1  0  0  0  0
  1 11  1  0  0  0  0
  2 11  1  0  0  0  0
  2 19  1  0  0  0  0
  3 13  1  0  0  0  0
  3 15  1  0  0  0  0
  4 14  1  0  0  0  0
  4 16  1  0  0  0  0
  5 13  2  0  0  0  0
  6 14  2  0  0  0  0
  7 19  3  0  0  0  0
  8  9  1  0  0  0  0
  8 10  2  0  0  0  0
  8 12  1  0  0  0  0
  9 11  2  0  0  0  0
  9 13  1  0  0  0  0
 10 14  1  0  0  0  0
 12 20  1  0  0  0  0
 12 21  1  0  0  0  0
 12 22  1  0  0  0  0
 15 17  1  0  0  0  0
 15 23  1  0  0  0  0
 15 24  1  0  0  0  0
 16 18  1  0  0  0  0
 16 25  1  0  0  0  0
 16 26  1  0  0  0  0
 17 27  1  0  0  0  0
 17 28  1  0  0  0  0
 17 29  1  0  0  0  0
 18 30  1  0  0  0  0
 18 31  1  0  0  0  0
 18 32  1  0  0  0  0
M  END
> <PUBCHEM_COMPOUND_CID>
854013

> <PUBCHEM_COMPOUND_CANONICALIZED>
1

> <PUBCHEM_CACTVS_COMPLEXITY>
392

> <PUBCHEM_CACTVS_HBOND_ACCEPTOR>
7

> <PUBCHEM_CACTVS_HBOND_DONOR>
0

> <PUBCHEM_CACTVS_ROTATABLE_BOND>
7

> <PUBCHEM_CACTVS_SUBSKEYS>
AAADccByOABgAAAAAAAAAAAAAAAAASAAAAAAAAAAAAAAAAABgAAAHgQAAAAADACg2AICCYAABAicAgDQCAADAYAkCBAAiBEACMgIJjKgNBiCEQAkwAEoqQaIJggOgAAAAAAAAAAAAAAAAAAAAAAAAAAAAA==

> <PUBCHEM_IUPAC_OPENEYE_NAME>
diethyl 3-methyl-5-thiocyanato-thiophene-2,4-dicarboxylate

> <PUBCHEM_IUPAC_CAS_NAME>
3-methyl-5-thiocyanatothiophene-2,4-dicarboxylic acid diethyl ester

> <PUBCHEM_IUPAC_NAME>
diethyl 3-methyl-5-thiocyanatothiophene-2,4-dicarboxylate

> <PUBCHEM_IUPAC_SYSTEMATIC_NAME>
diethyl 3-methyl-5-thiocyanato-thiophene-2,4-dicarboxylate

> <PUBCHEM_IUPAC_TRADITIONAL_NAME>
3-methyl-5-thiocyanato-thiophene-2,4-dicarboxylic acid diethyl ester

> <PUBCHEM_IUPAC_INCHI>
InChI=1S/C12H13NO4S2/c1-4-16-10(14)8-7(3)9(11(15)17-5-2)19-12(8)18-6-13/h4-5H2,1-3H3

> <PUBCHEM_IUPAC_INCHIKEY>
VEVQXVCSCLGZCK-UHFFFAOYSA-N

> <PUBCHEM_XLOGP3_AA>
3.6

> <PUBCHEM_EXACT_MASS>
299.0286

> <PUBCHEM_MOLECULAR_FORMULA>
C12H13NO4S2

> <PUBCHEM_MOLECULAR_WEIGHT>
299.36592

> <PUBCHEM_OPENEYE_CAN_SMILES>
CCOC(=O)C1=C(SC(=C1C)C(=O)OCC)SC#N

> <PUBCHEM_OPENEYE_ISO_SMILES>
CCOC(=O)C1=C(SC(=C1C)C(=O)OCC)SC#N

> <PUBCHEM_CACTVS_TPSA>
130

> <PUBCHEM_MONOISOTOPIC_WEIGHT>
299.0286

> <PUBCHEM_TOTAL_CHARGE>
0

> <PUBCHEM_HEAVY_ATOM_COUNT>
19

> <PUBCHEM_ATOM_DEF_STEREO_COUNT>
0

> <PUBCHEM_ATOM_UDEF_STEREO_COUNT>
0

> <PUBCHEM_BOND_DEF_STEREO_COUNT>
0

> <PUBCHEM_BOND_UDEF_STEREO_COUNT>
0

> <PUBCHEM_ISOTOPIC_ATOM_COUNT>
0

> <PUBCHEM_COMPONENT_COUNT>
1

> <PUBCHEM_CACTVS_TAUTO_COUNT>
1

> <PUBCHEM_COORDINATE_TYPE>
1
5
255

> <PUBCHEM_BONDANNOTATIONS>
1  10  8
1  11  8
8  10  8
8  9  8
9  11  8

$$$$

