4545
  -OEChem-06261200123D

 79 82  0     1  0  0  0  0  0999 V2000
    4.5007    0.4018    0.9045 O   0  0  0  0  0  0  0  0  0  0  0  0
    7.5836    2.4388    1.0159 O   0  0  0  0  0  0  0  0  0  0  0  0
    7.2846    0.9146   -1.2884 O   0  0  0  0  0  0  0  0  0  0  0  0
    3.9919   -1.6164   -0.1695 O   0  0  0  0  0  0  0  0  0  0  0  0
    6.4637   -1.7349    1.0773 O   0  0  0  0  0  0  0  0  0  0  0  0
    8.9899   -0.4841   -1.9482 O   0  0  0  0  0  0  0  0  0  0  0  0
   -0.3880   -2.0144    1.6509 O   0  0  0  0  0  0  0  0  0  0  0  0
   -2.0300   -0.1464   -1.5445 O   0  0  0  0  0  0  0  0  0  0  0  0
   -2.4646   -2.2642    2.6296 O   0  5  0  0  0  0  0  0  0  0  0  0
   -4.0614   -2.2169   -1.4755 O   0  0  0  0  0  0  0  0  0  0  0  0
   -9.9584   -0.2484   -0.3267 O   0  0  0  0  0  0  0  0  0  0  0  0
    8.1609    1.1378   -3.3514 N   0  0  0  0  0  0  0  0  0  0  0  0
   -3.6911   -0.9781    0.4566 N   0  0  0  0  0  0  0  0  0  0  0  0
    5.2820    1.6058    0.9931 C   0  0  0  0  0  0  0  0  0  0  0  0
    6.7888    1.2585    1.0610 C   0  0  1  0  0  0  0  0  0  0  0  0
    7.2410    0.2667   -0.0205 C   0  0  1  0  0  0  0  0  0  0  0  0
    6.2879   -0.9262   -0.0870 C   0  0  2  0  0  0  0  0  0  0  0  0
    4.8310   -0.4627   -0.1819 C   0  0  2  0  0  0  0  0  0  0  0  0
    4.9091    2.5768   -0.1396 C   0  0  0  0  0  0  0  0  0  0  0  0
    4.8608    2.2703    2.3170 C   0  0  0  0  0  0  0  0  0  0  0  0
    8.8274    2.2406    1.6645 C   0  0  0  0  0  0  0  0  0  0  0  0
    2.6445   -1.3966   -0.2666 C   0  0  0  0  0  0  0  0  0  0  0  0
    8.2134    0.4387   -2.1710 C   0  0  0  0  0  0  0  0  0  0  0  0
    1.7775   -1.8138    0.7437 C   0  0  0  0  0  0  0  0  0  0  0  0
    2.1413   -0.7469   -1.3934 C   0  0  0  0  0  0  0  0  0  0  0  0
    0.4061   -1.5807    0.6265 C   0  0  0  0  0  0  0  0  0  0  0  0
   -0.0895   -0.9350   -0.4942 C   0  0  0  0  0  0  0  0  0  0  0  0
    0.7711   -0.5136   -1.5113 C   0  0  0  0  0  0  0  0  0  0  0  0
    2.3256   -2.5099    1.9489 C   0  0  0  0  0  0  0  0  0  0  0  0
   -1.5309   -0.7098   -0.5789 C   0  0  0  0  0  0  0  0  0  0  0  0
   -2.3412   -1.2039    0.5642 C   0  0  0  0  0  0  0  0  0  0  0  0
   -1.7939   -1.8332    1.6408 C   0  0  0  0  0  0  0  0  0  0  0  0
   -4.4666   -1.5025   -0.5618 C   0  0  0  0  0  0  0  0  0  0  0  0
   -5.9130   -1.1673   -0.4981 C   0  0  0  0  0  0  0  0  0  0  0  0
   -7.6880    0.3197    0.1907 C   0  0  0  0  0  0  0  0  0  0  0  0
   -6.3303    0.0061    0.1300 C   0  0  0  0  0  0  0  0  0  0  0  0
   -8.1172    1.5806    0.8653 C   0  0  0  0  0  0  0  0  0  0  0  0
   -6.8535   -2.0272   -1.0655 C   0  0  0  0  0  0  0  0  0  0  0  0
   -8.6285   -0.5401   -0.3767 C   0  0  0  0  0  0  0  0  0  0  0  0
   -8.2112   -1.7136   -1.0047 C   0  0  0  0  0  0  0  0  0  0  0  0
   -8.1825    2.7574   -0.0765 C   0  0  0  0  0  0  0  0  0  0  0  0
   -7.4750    3.9022   -0.0254 C   0  0  0  0  0  0  0  0  0  0  0  0
   -6.4766    4.1319    1.0781 C   0  0  0  0  0  0  0  0  0  0  0  0
   -7.5914    5.0385   -1.0014 C   0  0  0  0  0  0  0  0  0  0  0  0
    6.9403    0.7539    2.0277 H   0  0  0  0  0  0  0  0  0  0  0  0
    8.2437   -0.0841    0.2530 H   0  0  0  0  0  0  0  0  0  0  0  0
    6.5089   -1.5640   -0.9509 H   0  0  0  0  0  0  0  0  0  0  0  0
    4.6942    0.0647   -1.1318 H   0  0  0  0  0  0  0  0  0  0  0  0
    5.1734    2.1959   -1.1286 H   0  0  0  0  0  0  0  0  0  0  0  0
    5.3973    3.5492   -0.0161 H   0  0  0  0  0  0  0  0  0  0  0  0
    3.8248    2.7389   -0.1616 H   0  0  0  0  0  0  0  0  0  0  0  0
    5.3978    3.2078    2.4940 H   0  0  0  0  0  0  0  0  0  0  0  0
    5.0427    1.6004    3.1655 H   0  0  0  0  0  0  0  0  0  0  0  0
    3.7848    2.4812    2.3219 H   0  0  0  0  0  0  0  0  0  0  0  0
    7.3864   -2.0417    1.0845 H   0  0  0  0  0  0  0  0  0  0  0  0
    9.3657    3.1929    1.6570 H   0  0  0  0  0  0  0  0  0  0  0  0
    9.4447    1.5074    1.1394 H   0  0  0  0  0  0  0  0  0  0  0  0
    8.6861    1.9436    2.7087 H   0  0  0  0  0  0  0  0  0  0  0  0
    2.7962   -0.4314   -2.2006 H   0  0  0  0  0  0  0  0  0  0  0  0
    0.3948   -0.0099   -2.3972 H   0  0  0  0  0  0  0  0  0  0  0  0
    7.4991    1.8945   -3.4879 H   0  0  0  0  0  0  0  0  0  0  0  0
    8.7817    0.9191   -4.1233 H   0  0  0  0  0  0  0  0  0  0  0  0
    1.7211   -3.3885    2.1996 H   0  0  0  0  0  0  0  0  0  0  0  0
    3.3467   -2.8749    1.8006 H   0  0  0  0  0  0  0  0  0  0  0  0
    2.3317   -1.8260    2.8039 H   0  0  0  0  0  0  0  0  0  0  0  0
   -4.1712   -0.7670    1.3289 H   0  0  0  0  0  0  0  0  0  0  0  0
   -5.6128    0.7021    0.5575 H   0  0  0  0  0  0  0  0  0  0  0  0
   -9.1081    1.4513    1.3194 H   0  0  0  0  0  0  0  0  0  0  0  0
   -7.4554    1.7592    1.7183 H   0  0  0  0  0  0  0  0  0  0  0  0
   -6.5487   -2.9484   -1.5549 H   0  0  0  0  0  0  0  0  0  0  0  0
   -8.9331   -2.3931   -1.4500 H   0  0  0  0  0  0  0  0  0  0  0  0
   -8.9025    2.6533   -0.8880 H   0  0  0  0  0  0  0  0  0  0  0  0
  -10.4557   -0.9564   -0.7710 H   0  0  0  0  0  0  0  0  0  0  0  0
   -5.4962    3.7401    0.7894 H   0  0  0  0  0  0  0  0  0  0  0  0
   -6.3633    5.2045    1.2739 H   0  0  0  0  0  0  0  0  0  0  0  0
   -6.7760    3.6900    2.0317 H   0  0  0  0  0  0  0  0  0  0  0  0
   -8.3101    4.8136   -1.7964 H   0  0  0  0  0  0  0  0  0  0  0  0
   -6.6233    5.2366   -1.4726 H   0  0  0  0  0  0  0  0  0  0  0  0
   -7.9284    5.9478   -0.4934 H   0  0  0  0  0  0  0  0  0  0  0  0
  1 14  1  0  0  0  0
  1 18  1  0  0  0  0
  2 15  1  0  0  0  0
  2 21  1  0  0  0  0
  3 16  1  0  0  0  0
  3 23  1  0  0  0  0
  4 18  1  0  0  0  0
  4 22  1  0  0  0  0
  5 17  1  0  0  0  0
  5 55  1  0  0  0  0
  6 23  2  0  0  0  0
  7 26  1  0  0  0  0
  7 32  1  0  0  0  0
  8 30  2  0  0  0  0
  9 32  1  0  0  0  0
 10 33  2  0  0  0  0
 11 39  1  0  0  0  0
 11 73  1  0  0  0  0
 12 23  1  0  0  0  0
 12 61  1  0  0  0  0
 12 62  1  0  0  0  0
 13 31  1  0  0  0  0
 13 33  1  0  0  0  0
 13 66  1  0  0  0  0
 14 15  1  0  0  0  0
 14 19  1  0  0  0  0
 14 20  1  0  0  0  0
 15 16  1  0  0  0  0
 15 45  1  0  0  0  0
 16 17  1  0  0  0  0
 16 46  1  0  0  0  0
 17 18  1  0  0  0  0
 17 47  1  0  0  0  0
 18 48  1  0  0  0  0
 19 49  1  0  0  0  0
 19 50  1  0  0  0  0
 19 51  1  0  0  0  0
 20 52  1  0  0  0  0
 20 53  1  0  0  0  0
 20 54  1  0  0  0  0
 21 56  1  0  0  0  0
 21 57  1  0  0  0  0
 21 58  1  0  0  0  0
 22 24  2  0  0  0  0
 22 25  1  0  0  0  0
 24 26  1  0  0  0  0
 24 29  1  0  0  0  0
 25 28  2  0  0  0  0
 25 59  1  0  0  0  0
 26 27  2  0  0  0  0
 27 28  1  0  0  0  0
 27 30  1  0  0  0  0
 28 60  1  0  0  0  0
 29 63  1  0  0  0  0
 29 64  1  0  0  0  0
 29 65  1  0  0  0  0
 30 31  1  0  0  0  0
 31 32  2  0  0  0  0
 33 34  1  0  0  0  0
 34 36  2  0  0  0  0
 34 38  1  0  0  0  0
 35 36  1  0  0  0  0
 35 37  1  0  0  0  0
 35 39  2  0  0  0  0
 36 67  1  0  0  0  0
 37 41  1  0  0  0  0
 37 68  1  0  0  0  0
 37 69  1  0  0  0  0
 38 40  2  0  0  0  0
 38 70  1  0  0  0  0
 39 40  1  0  0  0  0
 40 71  1  0  0  0  0
 41 42  2  0  0  0  0
 41 72  1  0  0  0  0
 42 43  1  0  0  0  0
 42 44  1  0  0  0  0
 43 74  1  0  0  0  0
 43 75  1  0  0  0  0
 43 76  1  0  0  0  0
 44 77  1  0  0  0  0
 44 78  1  0  0  0  0
 44 79  1  0  0  0  0
M  CHG  1   9  -1
M  END
> <PUBCHEM_COMPOUND_CID>
4545

> <PUBCHEM_CONFORMER_RMSD>
1.6

> <PUBCHEM_CONFORMER_DIVERSEORDER>
2
73
49
36
64
16
86
60
55
14
67
45
59
87
76
37
72
42
65
50
29
54
57
78
17
83
25
75
69
19
41
79
90
92
12
56
8
77
82
27
32
84
81
80
3
62
89
35
68
23
31
51
15
39
71
22
21
46
63
10
5
61
52
43
91
70
40
30
53
28
6
48
34
9
38
44
85
18
66
33
20
58
4
88
26
13
24
11
7
47
74
1

> <PUBCHEM_MMFF94_PARTIAL_CHARGES>
53
1 -0.56
10 -0.57
11 -0.53
12 -0.8
13 -0.54
14 0.28
15 0.28
16 0.28
17 0.28
18 0.56
2 -0.56
21 0.28
22 0.08
23 0.78
24 -0.14
25 -0.15
26 0.08
27 0.09
28 -0.15
29 0.14
3 -0.43
30 0.47
31 0.12
32 -0.07
33 0.54
34 0.09
35 -0.14
36 -0.15
37 0.28
38 -0.15
39 0.08
4 -0.36
40 -0.15
41 -0.29
42 -0.28
43 0.14
44 0.14
5 -0.68
55 0.4
59 0.15
6 -0.57
60 0.15
61 0.37
62 0.37
66 0.37
67 0.15
7 -0.16
70 0.15
71 0.15
72 0.15
73 0.45
8 -0.57
9 -0.85

> <PUBCHEM_EFFECTIVE_ROTOR_COUNT>
11.2

> <PUBCHEM_PHARMACOPHORE_FEATURES>
18
1 1 acceptor
1 10 acceptor
1 11 donor
1 12 donor
1 13 donor
1 2 acceptor
1 4 acceptor
1 5 acceptor
1 5 donor
1 6 acceptor
1 7 acceptor
1 8 acceptor
3 14 19 20 hydrophobe
3 42 43 44 hydrophobe
6 1 14 15 16 17 18 rings
6 22 24 25 26 27 28 rings
6 34 35 36 38 39 40 rings
6 7 26 27 30 31 32 rings

> <PUBCHEM_HEAVY_ATOM_COUNT>
44

> <PUBCHEM_ATOM_DEF_STEREO_COUNT>
0

> <PUBCHEM_ATOM_UDEF_STEREO_COUNT>
4

> <PUBCHEM_BOND_DEF_STEREO_COUNT>
0

> <PUBCHEM_BOND_UDEF_STEREO_COUNT>
0

> <PUBCHEM_ISOTOPIC_ATOM_COUNT>
0

> <PUBCHEM_COMPONENT_COUNT>
1

> <PUBCHEM_CACTVS_TAUTO_COUNT>
14

> <PUBCHEM_CONFORMER_ID>
000011C100000002

> <PUBCHEM_MMFF94_ENERGY>
167.0163

> <PUBCHEM_FEATURE_SELFOVERLAP>
91.417

> <PUBCHEM_SHAPE_FINGERPRINT>
10 15 15769779031023918598
11061554 47 18261115162434489168
11181472 205 18270956951254465198
11456790 92 18272376386253088656
12133447 93 18409440414750172820
12522641 24 18341058492985710778
12539765 74 18409445924966814678
12728209 37 16558751217616841353
13008946 267 18127691750228520227
13383665 225 18200013141062719780
13811026 1 17749105582326293736
14394314 77 18200593722284788381
150020 25 17749106669132608039
15604295 49 18334019376383875849
16994733 274 18411985780157726355
1754908 1 13326854430938679165
17686467 74 18411703150557570419
19301679 30 13326037537361064922
20105231 36 14779266381289018839
2026 5 6626930819551984108
21033648 29 18128827352719601370
21057603 40 15864063313094943948
21424621 283 18342457080349838739
21792961 116 16008741437886033143
21792965 78 4822947781192329644
22164985 6 15647059252908652615
24771293 8 18131349722197545215
3986486 107 18337659889853810924
4093350 32 18409450301802077074
44802255 64 17894632565957570983
4516262 110 18058175093835646895
4625314 4 17676487211573072679
504579 68 17313379011380448630
5265222 85 18041003891463822391
5758199 1 18131072628072230067
5937810 71 18040711503111810849
636775 72 18411703167205079689
6691757 9 17060339583545664851
6698420 124 17917990607134761043

> <PUBCHEM_SHAPE_MULTIPOLES>
830.97
34.96
4.13
2.03
8.74
5.71
0.33
24.03
7.94
8.52
-0.83
-4.28
-0.06
0.43

> <PUBCHEM_SHAPE_SELFOVERLAP>
1786.885

> <PUBCHEM_SHAPE_VOLUME>
454.3

> <PUBCHEM_COORDINATE_TYPE>
2
5
10

$$$$

