9141
  -OEChem-06261203273D

 35 39  0     0  0  0  0  0  0999 V2000
    2.4167    2.2796   -0.0743 N   0  0  0  0  0  0  0  0  0  0  0  0
   -0.5827    0.0363    0.0600 C   0  0  0  0  0  0  0  0  0  0  0  0
    0.1003   -1.2080    0.1510 C   0  0  0  0  0  0  0  0  0  0  0  0
    0.2423    1.2312    0.1116 C   0  0  0  0  0  0  0  0  0  0  0  0
    1.5278   -1.2763    0.0247 C   0  0  0  0  0  0  0  0  0  0  0  0
   -2.0469    0.0018   -0.0724 C   0  0  0  0  0  0  0  0  0  0  0  0
    2.2744   -0.0825   -0.1091 C   0  0  0  0  0  0  0  0  0  0  0  0
    1.6471    1.1658   -0.0371 C   0  0  0  0  0  0  0  0  0  0  0  0
   -2.7556   -1.2010    0.1719 C   0  0  0  0  0  0  0  0  0  0  0  0
   -0.6683   -2.3725    0.3691 C   0  0  0  0  0  0  0  0  0  0  0  0
   -2.0551   -2.3654    0.4286 C   0  0  0  0  0  0  0  0  0  0  0  0
    2.2613   -2.4978   -0.0012 C   0  0  0  0  0  0  0  0  0  0  0  0
   -0.2565    2.5307    0.3874 C   0  0  0  0  0  0  0  0  0  0  0  0
    3.6812   -0.1651   -0.2716 C   0  0  0  0  0  0  0  0  0  0  0  0
   -2.8631    1.0826   -0.5058 C   0  0  0  0  0  0  0  0  0  0  0  0
   -4.1607   -1.2607    0.1267 C   0  0  0  0  0  0  0  0  0  0  0  0
    3.6470   -2.5512   -0.1582 C   0  0  0  0  0  0  0  0  0  0  0  0
    4.3601   -1.3793   -0.2978 C   0  0  0  0  0  0  0  0  0  0  0  0
   -4.2604    1.0201   -0.5681 C   0  0  0  0  0  0  0  0  0  0  0  0
    0.5377    3.6695    0.3766 C   0  0  0  0  0  0  0  0  0  0  0  0
   -4.9130   -0.1493   -0.2271 C   0  0  0  0  0  0  0  0  0  0  0  0
    1.8663    3.4915    0.1152 C   0  0  0  0  0  0  0  0  0  0  0  0
   -0.2028   -3.3432    0.5181 H   0  0  0  0  0  0  0  0  0  0  0  0
   -2.5717   -3.3046    0.6164 H   0  0  0  0  0  0  0  0  0  0  0  0
    1.7631   -3.4600    0.0839 H   0  0  0  0  0  0  0  0  0  0  0  0
   -1.2901    2.6858    0.6811 H   0  0  0  0  0  0  0  0  0  0  0  0
    4.2856    0.7351   -0.3773 H   0  0  0  0  0  0  0  0  0  0  0  0
   -2.4213    2.0060   -0.8692 H   0  0  0  0  0  0  0  0  0  0  0  0
   -4.6837   -2.1905    0.3446 H   0  0  0  0  0  0  0  0  0  0  0  0
    4.1566   -3.5097   -0.1763 H   0  0  0  0  0  0  0  0  0  0  0  0
    5.4380   -1.4015   -0.4231 H   0  0  0  0  0  0  0  0  0  0  0  0
   -4.8270    1.8857   -0.8987 H   0  0  0  0  0  0  0  0  0  0  0  0
    0.1222    4.6490    0.5787 H   0  0  0  0  0  0  0  0  0  0  0  0
   -5.9956   -0.2098   -0.2714 H   0  0  0  0  0  0  0  0  0  0  0  0
    2.5536    4.3288    0.0768 H   0  0  0  0  0  0  0  0  0  0  0  0
  1  8  1  0  0  0  0
  1 22  2  0  0  0  0
  2  3  2  0  0  0  0
  2  4  1  0  0  0  0
  2  6  1  0  0  0  0
  3  5  1  0  0  0  0
  3 10  1  0  0  0  0
  4  8  2  0  0  0  0
  4 13  1  0  0  0  0
  5  7  1  0  0  0  0
  5 12  2  0  0  0  0
  6  9  1  0  0  0  0
  6 15  2  0  0  0  0
  7  8  1  0  0  0  0
  7 14  2  0  0  0  0
  9 11  1  0  0  0  0
  9 16  2  0  0  0  0
 10 11  2  0  0  0  0
 10 23  1  0  0  0  0
 11 24  1  0  0  0  0
 12 17  1  0  0  0  0
 12 25  1  0  0  0  0
 13 20  2  0  0  0  0
 13 26  1  0  0  0  0
 14 18  1  0  0  0  0
 14 27  1  0  0  0  0
 15 19  1  0  0  0  0
 15 28  1  0  0  0  0
 16 21  1  0  0  0  0
 16 29  1  0  0  0  0
 17 18  2  0  0  0  0
 17 30  1  0  0  0  0
 18 31  1  0  0  0  0
 19 21  2  0  0  0  0
 19 32  1  0  0  0  0
 20 22  1  0  0  0  0
 20 33  1  0  0  0  0
 21 34  1  0  0  0  0
 22 35  1  0  0  0  0
M  END
> <PUBCHEM_COMPOUND_CID>
9141

> <PUBCHEM_CONFORMER_RMSD>
0.6

> <PUBCHEM_CONFORMER_DIVERSEORDER>
1

> <PUBCHEM_MMFF94_PARTIAL_CHARGES>
28
1 -0.62
10 -0.15
11 -0.15
12 -0.15
13 -0.15
14 -0.15
15 -0.15
16 -0.15
17 -0.15
18 -0.15
19 -0.15
20 -0.15
21 -0.15
22 0.16
23 0.15
24 0.15
25 0.15
26 0.15
27 0.15
28 0.15
29 0.15
30 0.15
31 0.15
32 0.15
33 0.15
34 0.15
35 0.15
8 0.31

> <PUBCHEM_EFFECTIVE_ROTOR_COUNT>
0

> <PUBCHEM_PHARMACOPHORE_FEATURES>
6
1 1 acceptor
6 1 4 8 13 20 22 rings
6 2 3 4 5 7 8 rings
6 2 3 6 9 10 11 rings
6 5 7 12 14 17 18 rings
6 6 9 15 16 19 21 rings

> <PUBCHEM_HEAVY_ATOM_COUNT>
22

> <PUBCHEM_ATOM_DEF_STEREO_COUNT>
0

> <PUBCHEM_ATOM_UDEF_STEREO_COUNT>
0

> <PUBCHEM_BOND_DEF_STEREO_COUNT>
0

> <PUBCHEM_BOND_UDEF_STEREO_COUNT>
0

> <PUBCHEM_ISOTOPIC_ATOM_COUNT>
0

> <PUBCHEM_COMPONENT_COUNT>
1

> <PUBCHEM_CACTVS_TAUTO_COUNT>
1

> <PUBCHEM_CONFORMER_ID>
000023B500000001

> <PUBCHEM_MMFF94_ENERGY>
100.6198

> <PUBCHEM_FEATURE_SELFOVERLAP>
30.541

> <PUBCHEM_SHAPE_FINGERPRINT>
10319926 262 16025365684737989056
10411042 1 18265894833711053746
10608611 8 18268712701839967481
10616163 171 17836647422693375937
10693767 8 18044680795617000903
10906281 52 18264188344699010956
10967382 1 18410573959603245448
1100329 8 18120087548806220665
11578080 2 17314821635187370513
11680986 33 18339359643628385865
116883 192 18119242007395081558
12403259 226 18341898480860301015
12553582 1 18265314253127339858
12788726 201 18124312963723108474
13004483 165 18194131926185419434
13140716 1 18267030449054914232
138480 1 18410011022593157544
14223421 5 18052535474340314291
14790565 3 17400073570406262360
14866123 147 17185312587034148578
15042514 8 17834113422328054050
15081414 286 18335972125850022074
15196674 1 18411981385968663367
15442244 35 18408601478782638481
15475509 8 17753017752277903165
16087824 20 18050001401019194033
16945 1 18194404381340080515
17138139 8 17037586547181201957
17492 89 18265054622365638743
18785283 64 18198619930453955953
19591789 44 18267304424765407705
20510252 161 18046912864144406866
20775438 99 17468526596635997679
21029758 11 18337955691728278727
21267235 1 18338789113026642535
21478907 32 18050003599614551554
221357 26 18411989091751571685
221490 88 18340762633508903715
2334 1 18122340169142469944
23366157 5 17986678073605323912
23402539 116 18190749815200922510
23557571 272 17971189485729170710
23558518 356 17769660797710491643
23559900 14 18409170974255520008
238 59 17909593624343516605
2748010 2 17404294105828474866
3004659 81 18130784624956206502
3091708 16 9500584765784149008
3298306 158 18048587124112146908
335352 9 18339079397481852965
34934 24 18409736149266049890
350125 39 18051968126102823049
3524813 1 18059302057981574365
352729 6 17329714730580340576
5104073 3 18340767036261605691
5939293 188 18410299077548994792
6438718 38 17462291549103271957
6443956 14 18411697699241843076
7364860 26 18337671889100891720
81228 2 17973430289861926392
9709674 26 18268430135957933635
9981440 41 17617106810535993473

> <PUBCHEM_SHAPE_MULTIPOLES>
447.77
7.7
3.97
0.68
3.9
2.84
0
-3.2
1.24
-2.48
-0.53
0.11
0.02
0.52

> <PUBCHEM_SHAPE_SELFOVERLAP>
1041.048

> <PUBCHEM_SHAPE_VOLUME>
222.8

> <PUBCHEM_COORDINATE_TYPE>
2
5
10

$$$$

