47205080
  -OEChem-06241222583D

 34 35  0     0  0  0  0  0  0999 V2000
   -2.7871    2.2524   -0.1115 O   0  0  0  0  0  0  0  0  0  0  0  0
   -4.7542    0.3465    0.3650 O   0  0  0  0  0  0  0  0  0  0  0  0
    0.9932   -2.2901    0.1597 O   0  0  0  0  0  0  0  0  0  0  0  0
    1.3935   -0.3970   -1.1181 N   0  0  0  0  0  0  0  0  0  0  0  0
    3.9948    1.1860   -0.2543 N   0  0  0  0  0  0  0  0  0  0  0  0
    4.8329    1.4824    0.7536 N   0  0  0  0  0  0  0  0  0  0  0  0
    2.7800   -0.6817   -1.4101 C   0  0  0  0  0  0  0  0  0  0  0  0
   -0.8034   -0.8175   -0.1594 C   0  0  0  0  0  0  0  0  0  0  0  0
    3.6992   -0.1418   -0.3528 C   0  0  0  0  0  0  0  0  0  0  0  0
    0.5791   -1.2301   -0.3422 C   0  0  0  0  0  0  0  0  0  0  0  0
   -1.1423    0.5341   -0.2225 C   0  0  0  0  0  0  0  0  0  0  0  0
   -2.4684    0.9295   -0.0473 C   0  0  0  0  0  0  0  0  0  0  0  0
   -1.7906   -1.7737    0.0791 C   0  0  0  0  0  0  0  0  0  0  0  0
   -3.4555   -0.0267    0.1911 C   0  0  0  0  0  0  0  0  0  0  0  0
   -3.1167   -1.3784    0.2543 C   0  0  0  0  0  0  0  0  0  0  0  0
    4.3924   -0.7570    0.6609 C   0  0  0  0  0  0  0  0  0  0  0  0
    5.0723    0.2915    1.3091 C   0  0  0  0  0  0  0  0  0  0  0  0
   -1.7189    3.1649   -0.3588 C   0  0  0  0  0  0  0  0  0  0  0  0
   -5.7006   -0.6935    0.6041 C   0  0  0  0  0  0  0  0  0  0  0  0
    2.9116   -1.7654   -1.5031 H   0  0  0  0  0  0  0  0  0  0  0  0
    3.0134   -0.2294   -2.3800 H   0  0  0  0  0  0  0  0  0  0  0  0
    1.0051    0.4269   -1.5641 H   0  0  0  0  0  0  0  0  0  0  0  0
   -0.3491    1.2571   -0.3639 H   0  0  0  0  0  0  0  0  0  0  0  0
   -1.5469   -2.8319    0.1273 H   0  0  0  0  0  0  0  0  0  0  0  0
   -3.8295   -2.1755    0.4348 H   0  0  0  0  0  0  0  0  0  0  0  0
    4.4037   -1.8108    0.8981 H   0  0  0  0  0  0  0  0  0  0  0  0
    3.6609    1.9433   -0.8376 H   0  0  0  0  0  0  0  0  0  0  0  0
    5.7319    0.2373    2.1632 H   0  0  0  0  0  0  0  0  0  0  0  0
   -2.1553    4.1688   -0.3891 H   0  0  0  0  0  0  0  0  0  0  0  0
   -1.2563    2.9926   -1.3367 H   0  0  0  0  0  0  0  0  0  0  0  0
   -0.9887    3.1631    0.4578 H   0  0  0  0  0  0  0  0  0  0  0  0
   -6.6801   -0.2175    0.7183 H   0  0  0  0  0  0  0  0  0  0  0  0
   -5.4926   -1.2209    1.5412 H   0  0  0  0  0  0  0  0  0  0  0  0
   -5.7763   -1.3747   -0.2504 H   0  0  0  0  0  0  0  0  0  0  0  0
  1 12  1  0  0  0  0
  1 18  1  0  0  0  0
  2 14  1  0  0  0  0
  2 19  1  0  0  0  0
  3 10  2  0  0  0  0
  4  7  1  0  0  0  0
  4 10  1  0  0  0  0
  4 22  1  0  0  0  0
  5  6  1  0  0  0  0
  5  9  1  0  0  0  0
  5 27  1  0  0  0  0
  6 17  2  0  0  0  0
  7  9  1  0  0  0  0
  7 20  1  0  0  0  0
  7 21  1  0  0  0  0
  8 10  1  0  0  0  0
  8 11  2  0  0  0  0
  8 13  1  0  0  0  0
  9 16  2  0  0  0  0
 11 12  1  0  0  0  0
 11 23  1  0  0  0  0
 12 14  2  0  0  0  0
 13 15  2  0  0  0  0
 13 24  1  0  0  0  0
 14 15  1  0  0  0  0
 15 25  1  0  0  0  0
 16 17  1  0  0  0  0
 16 26  1  0  0  0  0
 17 28  1  0  0  0  0
 18 29  1  0  0  0  0
 18 30  1  0  0  0  0
 18 31  1  0  0  0  0
 19 32  1  0  0  0  0
 19 33  1  0  0  0  0
 19 34  1  0  0  0  0
M  END
> <PUBCHEM_COMPOUND_CID>
47205080

> <PUBCHEM_CONFORMER_RMSD>
0.8

> <PUBCHEM_CONFORMER_DIVERSEORDER>
1
21
33
10
40
26
25
38
29
23
22
32
4
12
42
24
35
36
28
43
13
27
31
6
5
2
20
9
41
39
37
11
15
16
30
3
19
7
34
17
8
14
18

> <PUBCHEM_MMFF94_PARTIAL_CHARGES>
26
1 -0.36
10 0.54
11 -0.15
12 0.08
13 -0.15
14 0.08
15 -0.15
16 -0.15
17 0.14
18 0.28
19 0.28
2 -0.36
22 0.37
23 0.15
24 0.15
25 0.15
26 0.15
27 0.27
28 0.15
3 -0.57
4 -0.73
5 0.3
6 -0.71
7 0.48
8 0.09
9 -0.33

> <PUBCHEM_EFFECTIVE_ROTOR_COUNT>
6

> <PUBCHEM_PHARMACOPHORE_FEATURES>
8
1 1 acceptor
1 2 acceptor
1 3 acceptor
1 4 donor
1 5 donor
1 6 acceptor
5 5 6 9 16 17 rings
6 8 11 12 13 14 15 rings

> <PUBCHEM_HEAVY_ATOM_COUNT>
19

> <PUBCHEM_ATOM_DEF_STEREO_COUNT>
0

> <PUBCHEM_ATOM_UDEF_STEREO_COUNT>
0

> <PUBCHEM_BOND_DEF_STEREO_COUNT>
0

> <PUBCHEM_BOND_UDEF_STEREO_COUNT>
0

> <PUBCHEM_ISOTOPIC_ATOM_COUNT>
0

> <PUBCHEM_COMPONENT_COUNT>
1

> <PUBCHEM_CACTVS_TAUTO_COUNT>
4

> <PUBCHEM_CONFORMER_ID>
02D04AD800000001

> <PUBCHEM_MMFF94_ENERGY>
56.3543

> <PUBCHEM_FEATURE_SELFOVERLAP>
40.599

> <PUBCHEM_SHAPE_FINGERPRINT>
10319926 262 18338808926438435442
10646746 165 18337670914496626622
10670039 82 18271226314623933436
11128504 68 5328744089008396410
11132069 177 18408877430357449607
11595378 159 18130803273192165304
11715629 250 18261954153829389430
12107183 9 17695922407350240250
12236239 1 17418375791763375779
12403259 415 18261107521729126836
12555020 224 9511459996803358257
12596602 18 17275106089975961672
12892183 10 18272097084867413146
13081056 2 18260826025119272102
13140716 1 18196928877586413195
13402501 40 18260270724529466200
13533116 47 18131354150056236986
13914758 101 15626236736372876959
13965767 371 17340123751110228229
14178342 30 18129377270871886420
14341114 176 18343301466366412032
14366163 111 4823212814627840642
17349148 13 17489860544712500471
1813 80 16200149963132006678
18186145 218 17968363650398291534
18915474 69 8286195072437751002
200 152 14620797085190017271
20510252 161 18263638627613746737
20645477 56 18187079555224741526
20645477 70 16805593824568395574
21315764 268 18411427210944813568
21652331 79 18410575080473775648
22182937 141 17972309878876562433
23227448 37 18114467747106863908
23402539 116 18410580565653558055
23557571 272 18261657268473136588
23559900 14 18045783656928811966
34797466 226 16009020636561237981
351380 180 18409452470738540138
3524813 1 18187091645584144648
3545911 37 18259700104080575286
3680242 22 18341606048915999641
465052 167 13902188192735411178
5104073 3 18268702991140711491
5374978 207 18341891883511082726
621550 34 18040988592209285951
7808743 9 18118970179474047800
90316 7 17346038973607305524
960060 61 9583516529931480090

> <PUBCHEM_SHAPE_MULTIPOLES>
358.46
11.43
2.33
0.97
3.81
1.55
-0.05
1.22
3.87
-1.32
-0.13
0.98
-0.06
0.68

> <PUBCHEM_SHAPE_SELFOVERLAP>
759.345

> <PUBCHEM_SHAPE_VOLUME>
201.1

> <PUBCHEM_COORDINATE_TYPE>
2
5
10

$$$$

