17395475
  -OEChem-06241222503D

 37 38  0     1  0  0  0  0  0999 V2000
    1.0038   -1.2892   -0.2052 O   0  0  0  0  0  0  0  0  0  0  0  0
   -1.1364   -0.3232   -1.2967 O   0  0  0  0  0  0  0  0  0  0  0  0
   -2.1562    0.4300    0.6721 N   0  0  0  0  0  0  0  0  0  0  0  0
    7.1952    1.3957   -0.1781 N   0  0  0  0  0  0  0  0  0  0  0  0
    0.0650   -0.7426    0.7149 C   0  0  1  0  0  0  0  0  0  0  0  0
   -1.1257   -0.1855   -0.0687 C   0  0  0  0  0  0  0  0  0  0  0  0
   -3.5152    0.3501    0.1721 C   0  0  0  0  0  0  0  0  0  0  0  0
   -0.3745   -1.8728    1.6337 C   0  0  0  0  0  0  0  0  0  0  0  0
   -1.9091    1.1496    1.9312 C   0  0  0  0  0  0  0  0  0  0  0  0
    2.2604   -0.7444   -0.1995 C   0  0  0  0  0  0  0  0  0  0  0  0
   -3.9168   -0.7522   -0.5826 C   0  0  0  0  0  0  0  0  0  0  0  0
   -4.4204    1.3757    0.4449 C   0  0  0  0  0  0  0  0  0  0  0  0
   -5.2237   -0.8289   -1.0641 C   0  0  0  0  0  0  0  0  0  0  0  0
   -5.7272    1.2989   -0.0367 C   0  0  0  0  0  0  0  0  0  0  0  0
    2.4338    0.6113   -0.4783 C   0  0  0  0  0  0  0  0  0  0  0  0
    3.3665   -1.5451    0.0851 C   0  0  0  0  0  0  0  0  0  0  0  0
   -6.1290    0.1966   -0.7911 C   0  0  0  0  0  0  0  0  0  0  0  0
    3.7134    1.1663   -0.4726 C   0  0  0  0  0  0  0  0  0  0  0  0
    4.6462   -0.9901    0.0907 C   0  0  0  0  0  0  0  0  0  0  0  0
    4.8195    0.3657   -0.1882 C   0  0  0  0  0  0  0  0  0  0  0  0
    6.1305    0.9341   -0.1827 C   0  0  0  0  0  0  0  0  0  0  0  0
    0.5272    0.0531    1.3066 H   0  0  0  0  0  0  0  0  0  0  0  0
   -0.8528   -2.6759    1.0609 H   0  0  0  0  0  0  0  0  0  0  0  0
    0.4910   -2.3164    2.1377 H   0  0  0  0  0  0  0  0  0  0  0  0
   -1.0826   -1.5374    2.3965 H   0  0  0  0  0  0  0  0  0  0  0  0
   -2.6572    0.8521    2.6727 H   0  0  0  0  0  0  0  0  0  0  0  0
   -1.9768    2.2244    1.7375 H   0  0  0  0  0  0  0  0  0  0  0  0
   -0.9219    0.9566    2.3470 H   0  0  0  0  0  0  0  0  0  0  0  0
   -3.2504   -1.5854   -0.7865 H   0  0  0  0  0  0  0  0  0  0  0  0
   -4.1387    2.2535    1.0185 H   0  0  0  0  0  0  0  0  0  0  0  0
    1.5824    1.2453   -0.7108 H   0  0  0  0  0  0  0  0  0  0  0  0
    3.2369   -2.6015    0.3035 H   0  0  0  0  0  0  0  0  0  0  0  0
   -5.5391   -1.6907   -1.6450 H   0  0  0  0  0  0  0  0  0  0  0  0
   -6.4317    2.0982    0.1736 H   0  0  0  0  0  0  0  0  0  0  0  0
   -7.1469    0.1362   -1.1649 H   0  0  0  0  0  0  0  0  0  0  0  0
    3.8327    2.2243   -0.6940 H   0  0  0  0  0  0  0  0  0  0  0  0
    5.4986   -1.6271    0.3144 H   0  0  0  0  0  0  0  0  0  0  0  0
  1  5  1  0  0  0  0
  1 10  1  0  0  0  0
  2  6  2  0  0  0  0
  3  6  1  0  0  0  0
  3  7  1  0  0  0  0
  3  9  1  0  0  0  0
  4 21  3  0  0  0  0
  5  6  1  0  0  0  0
  5  8  1  0  0  0  0
  5 22  1  0  0  0  0
  7 11  2  0  0  0  0
  7 12  1  0  0  0  0
  8 23  1  0  0  0  0
  8 24  1  0  0  0  0
  8 25  1  0  0  0  0
  9 26  1  0  0  0  0
  9 27  1  0  0  0  0
  9 28  1  0  0  0  0
 10 15  2  0  0  0  0
 10 16  1  0  0  0  0
 11 13  1  0  0  0  0
 11 29  1  0  0  0  0
 12 14  2  0  0  0  0
 12 30  1  0  0  0  0
 13 17  2  0  0  0  0
 13 33  1  0  0  0  0
 14 17  1  0  0  0  0
 14 34  1  0  0  0  0
 15 18  1  0  0  0  0
 15 31  1  0  0  0  0
 16 19  2  0  0  0  0
 16 32  1  0  0  0  0
 17 35  1  0  0  0  0
 18 20  2  0  0  0  0
 18 36  1  0  0  0  0
 19 20  1  0  0  0  0
 19 37  1  0  0  0  0
 20 21  1  0  0  0  0
M  END
> <PUBCHEM_COMPOUND_CID>
17395475

> <PUBCHEM_CONFORMER_RMSD>
0.8

> <PUBCHEM_CONFORMER_DIVERSEORDER>
5
66
2
60
72
84
92
7
50
88
64
62
75
18
54
67
43
41
85
17
21
23
52
81
51
87
34
32
46
19
86
38
29
74
49
68
14
80
58
53
36
1
55
6
82
70
90
71
8
77
93
13
56
79
16
91
30
35
76
48
4
9
37
42
22
63
26
27
31
89
59
40
33
83
65
3
15
57
47
20
44
73
25
45
61
69
78
10
94
28
12
39
24
11

> <PUBCHEM_MMFF94_PARTIAL_CHARGES>
29
1 -0.36
10 0.08
11 -0.15
12 -0.15
13 -0.15
14 -0.15
15 -0.15
16 -0.15
17 -0.15
18 -0.15
19 -0.15
2 -0.57
20 0.07
21 0.48
29 0.15
3 -0.48
30 0.15
31 0.15
32 0.15
33 0.15
34 0.15
35 0.15
36 0.15
37 0.15
4 -0.56
5 0.34
6 0.57
7 0.12
9 0.3

> <PUBCHEM_EFFECTIVE_ROTOR_COUNT>
5

> <PUBCHEM_PHARMACOPHORE_FEATURES>
5
1 1 acceptor
1 2 acceptor
1 4 acceptor
6 10 15 16 18 19 20 rings
6 7 11 12 13 14 17 rings

> <PUBCHEM_HEAVY_ATOM_COUNT>
21

> <PUBCHEM_ATOM_DEF_STEREO_COUNT>
0

> <PUBCHEM_ATOM_UDEF_STEREO_COUNT>
1

> <PUBCHEM_BOND_DEF_STEREO_COUNT>
0

> <PUBCHEM_BOND_UDEF_STEREO_COUNT>
0

> <PUBCHEM_ISOTOPIC_ATOM_COUNT>
0

> <PUBCHEM_COMPONENT_COUNT>
1

> <PUBCHEM_CACTVS_TAUTO_COUNT>
1

> <PUBCHEM_CONFORMER_ID>
01096F1300000005

> <PUBCHEM_MMFF94_ENERGY>
77.3726

> <PUBCHEM_FEATURE_SELFOVERLAP>
25.384

> <PUBCHEM_SHAPE_FINGERPRINT>
10 15 16630527298598301028
10595046 47 18334579070392870743
12107183 9 17470161926385987419
12236239 1 18261112997353467255
12633257 1 13542455458463563731
13288520 33 7493285539142972553
13533116 47 18337113466539210690
13631057 29 18268995294052358099
13690498 29 18042137479572459191
14123256 10 18260267430236263149
1420 363 14201117907540738430
14251764 18 11167934762593087106
14251764 30 14201401569030368829
14350574 20 6555414210998781144
14528608 73 18335140890437356564
15048467 5 18410576206235216261
15348495 7 14692277409838014308
17834072 33 18261115179518574487
1813 80 6843927204087611419
18681886 176 17749679497442076048
19784866 140 4967617139664556590
200 152 18260268559955125675
20157964 124 18342455967346582130
20871999 31 15864062200149494834
21033648 29 17131567071256475316
21150785 3 17748829592133700501
21267235 1 17240489066530360815
22224240 67 17275384309572930331
22950370 63 7997965777948060258
2297311 6 15719390633699631777
23035841 295 7925915880897903588
23402539 116 18259989283642929143
23402655 69 18409167710059379998
23536379 177 18260831526729843543
23557571 272 15719384070689150721
23559900 14 18041007202318312673
2767999 5 17988926664915077876
2838139 119 18202284684366661140
29717793 49 17967529121199371302
300161 21 18341896302837303559
3004659 81 17822571737102523302
335352 9 18413385442018747438
34797466 226 17240479187156358437
351380 180 18131069341925941100
351380 3 9007061245116331172
4073 2 18202278083017881426
4325135 7 18260831488417854125
465052 167 9367339353934387504
474 4 18343860013408694560
5207 217 18260267425725160827
5385378 56 14332859269795424209
542803 24 18335422382667886799
543368 44 18412265052011593757
7226269 152 15123511410822649821
7495541 125 17168154424709262515

> <PUBCHEM_SHAPE_MULTIPOLES>
410.47
16.28
1.6
1.17
6.27
0.19
-0.41
-6.44
3.87
0.61
-0.33
-1.03
0.09
-0.89

> <PUBCHEM_SHAPE_SELFOVERLAP>
868.298

> <PUBCHEM_SHAPE_VOLUME>
227.6

> <PUBCHEM_COORDINATE_TYPE>
2
5
10

$$$$

