7230
  -OEChem-06261201553D

 29 30  0     0  0  0  0  0  0999 V2000
   -1.6919   -1.3393    0.0600 S   0  0  0  0  0  0  0  0  0  0  0  0
    1.2510   -2.0668   -0.0123 S   0  0  0  0  0  0  0  0  0  0  0  0
   -2.3418    0.1810    0.1015 N   0  0  0  0  0  0  0  0  0  0  0  0
    0.3765    0.3587    0.0503 N   0  0  0  0  0  0  0  0  0  0  0  0
   -3.7937    0.3512   -0.0167 C   0  0  0  0  0  0  0  0  0  0  0  0
   -4.1013    1.8467   -0.1467 C   0  0  0  0  0  0  0  0  0  0  0  0
   -4.2724   -0.3946   -1.2669 C   0  0  0  0  0  0  0  0  0  0  0  0
   -4.4762   -0.2205    1.2316 C   0  0  0  0  0  0  0  0  0  0  0  0
    0.0196   -0.8946    0.0341 C   0  0  0  0  0  0  0  0  0  0  0  0
    2.4213   -0.8005   -0.0124 C   0  0  0  0  0  0  0  0  0  0  0  0
    1.7616    0.4316    0.0239 C   0  0  0  0  0  0  0  0  0  0  0  0
    3.8222   -0.8911   -0.0423 C   0  0  0  0  0  0  0  0  0  0  0  0
    2.5336    1.6136    0.0304 C   0  0  0  0  0  0  0  0  0  0  0  0
    4.5626    0.2938   -0.0351 C   0  0  0  0  0  0  0  0  0  0  0  0
    3.9288    1.5309    0.0007 C   0  0  0  0  0  0  0  0  0  0  0  0
   -3.6137    2.2794   -1.0283 H   0  0  0  0  0  0  0  0  0  0  0  0
   -5.1789    2.0206   -0.2464 H   0  0  0  0  0  0  0  0  0  0  0  0
   -3.7571    2.4047    0.7321 H   0  0  0  0  0  0  0  0  0  0  0  0
   -4.2082   -1.4845   -1.1757 H   0  0  0  0  0  0  0  0  0  0  0  0
   -3.7133   -0.0896   -2.1600 H   0  0  0  0  0  0  0  0  0  0  0  0
   -5.3279   -0.1674   -1.4618 H   0  0  0  0  0  0  0  0  0  0  0  0
   -4.1001    0.2531    2.1462 H   0  0  0  0  0  0  0  0  0  0  0  0
   -5.5574   -0.0410    1.1947 H   0  0  0  0  0  0  0  0  0  0  0  0
   -4.3381   -1.3027    1.3328 H   0  0  0  0  0  0  0  0  0  0  0  0
   -2.0076    0.6883    0.9211 H   0  0  0  0  0  0  0  0  0  0  0  0
    4.3239   -1.8534   -0.0704 H   0  0  0  0  0  0  0  0  0  0  0  0
    2.0487    2.5853    0.0582 H   0  0  0  0  0  0  0  0  0  0  0  0
    5.6482    0.2460   -0.0579 H   0  0  0  0  0  0  0  0  0  0  0  0
    4.5211    2.4418    0.0056 H   0  0  0  0  0  0  0  0  0  0  0  0
  1  3  1  0  0  0  0
  1  9  1  0  0  0  0
  2  9  1  0  0  0  0
  2 10  1  0  0  0  0
  3  5  1  0  0  0  0
  3 25  1  0  0  0  0
  4  9  2  0  0  0  0
  4 11  1  0  0  0  0
  5  6  1  0  0  0  0
  5  7  1  0  0  0  0
  5  8  1  0  0  0  0
  6 16  1  0  0  0  0
  6 17  1  0  0  0  0
  6 18  1  0  0  0  0
  7 19  1  0  0  0  0
  7 20  1  0  0  0  0
  7 21  1  0  0  0  0
  8 22  1  0  0  0  0
  8 23  1  0  0  0  0
  8 24  1  0  0  0  0
 10 11  1  0  0  0  0
 10 12  2  0  0  0  0
 11 13  2  0  0  0  0
 12 14  1  0  0  0  0
 12 26  1  0  0  0  0
 13 15  1  0  0  0  0
 13 27  1  0  0  0  0
 14 15  2  0  0  0  0
 14 28  1  0  0  0  0
 15 29  1  0  0  0  0
M  END
> <PUBCHEM_COMPOUND_CID>
7230

> <PUBCHEM_CONFORMER_RMSD>
0.6

> <PUBCHEM_CONFORMER_DIVERSEORDER>
1
6
5
8
4
7
2
3

> <PUBCHEM_MMFF94_PARTIAL_CHARGES>
17
1 -0.04
10 0.04
11 0.23
12 -0.15
13 -0.15
14 -0.15
15 -0.15
2 -0.08
25 0.36
26 0.15
27 0.15
28 0.15
29 0.15
3 -0.65
4 -0.57
5 0.27
9 0.43

> <PUBCHEM_EFFECTIVE_ROTOR_COUNT>
3

> <PUBCHEM_PHARMACOPHORE_FEATURES>
4
1 4 acceptor
4 5 6 7 8 hydrophobe
5 2 4 9 10 11 rings
6 10 11 12 13 14 15 rings

> <PUBCHEM_HEAVY_ATOM_COUNT>
15

> <PUBCHEM_ATOM_DEF_STEREO_COUNT>
0

> <PUBCHEM_ATOM_UDEF_STEREO_COUNT>
0

> <PUBCHEM_BOND_DEF_STEREO_COUNT>
0

> <PUBCHEM_BOND_UDEF_STEREO_COUNT>
0

> <PUBCHEM_ISOTOPIC_ATOM_COUNT>
0

> <PUBCHEM_COMPONENT_COUNT>
1

> <PUBCHEM_CACTVS_TAUTO_COUNT>
1

> <PUBCHEM_CONFORMER_ID>
00001C3E00000001

> <PUBCHEM_MMFF94_ENERGY>
22.0067

> <PUBCHEM_FEATURE_SELFOVERLAP>
20.37

> <PUBCHEM_SHAPE_FINGERPRINT>
10608611 8 18413108372676045289
11471102 20 18410577288493089238
11543360 7 15791734048962652352
11796584 16 14562800093082206404
13081056 2 18411697682003977409
13583140 156 17060069111810325291
13675066 3 17917707993806450035
13922767 16 18409168805518393202
14123255 52 18410857659262492475
14415576 193 18410853265584496566
14897335 6 18409169887375742326
15196674 1 18410856576830234245
15239154 128 18411418397223256485
15442244 35 18120654901010702354
17834072 33 18260272914936049535
18186145 218 18333724706681471506
200 152 17967535674739034035
20300324 65 17894353255074131653
20645477 70 18335700580843533294
21652331 79 18411698786021763945
231179 274 17989214754099148302
23402539 116 18040721380555201245
23402655 69 18260269689352280493
23559900 14 18261111937014003342
25 1 18412546513623464994
293599 30 18338793417343054236
3545911 37 18410569561361640034
4047638 21 18411133628454931690
4214541 1 18410855469087406977
449060 50 18342171155106351511
474 4 18272652307473048860
4990 188 17894344480207994014
5104073 3 18342175600392105601
602551 16 16056585517841683050
633830 44 18411701023414791439
6430166 295 18411140238140509904
69090 78 18335706017934246982
77779 3 18411135831446074375
8272917 22 18261387918194643366
9709674 26 18409161134422576575

> <PUBCHEM_SHAPE_MULTIPOLES>
306.43
10.37
1.86
0.83
4.57
0.05
0.01
3.21
0.09
-0.55
0.03
0.92
-0.07
0.05

> <PUBCHEM_SHAPE_SELFOVERLAP>
617.905

> <PUBCHEM_SHAPE_VOLUME>
182.6

> <PUBCHEM_COORDINATE_TYPE>
2
5
10

$$$$

