5586
  -OEChem-06261200453D

 44 47  0     1  0  0  0  0  0999 V2000
    5.7857   -1.8762   -0.2343 Cl  0  0  0  0  0  0  0  0  0  0  0  0
    5.1967    1.2930    0.0282 S   0  0  0  0  0  0  0  0  0  0  0  0
   -0.0245    1.1662    0.9451 O   0  0  0  0  0  0  0  0  0  0  0  0
    4.7218    2.4808    0.7196 O   0  0  0  0  0  0  0  0  0  0  0  0
    6.4319    0.6507    0.4480 O   0  0  0  0  0  0  0  0  0  0  0  0
   -2.1100   -0.3341   -0.0717 N   0  0  0  0  0  0  0  0  0  0  0  0
   -0.7927   -0.7243   -0.1591 N   0  0  0  0  0  0  0  0  0  0  0  0
    5.2859    1.6222   -1.6447 N   0  0  0  0  0  0  0  0  0  0  0  0
   -4.2266   -0.2594   -1.1329 C   0  0  1  0  0  0  0  0  0  0  0  0
   -4.3616   -1.0154    0.2084 C   0  0  2  0  0  0  0  0  0  0  0  0
   -4.9279    1.0893   -0.8332 C   0  0  2  0  0  0  0  0  0  0  0  0
   -5.1219    0.0022    1.0955 C   0  0  1  0  0  0  0  0  0  0  0  0
   -4.5968    1.3612    0.6338 C   0  0  0  0  0  0  0  0  0  0  0  0
   -6.4443    0.8221   -0.7422 C   0  0  0  0  0  0  0  0  0  0  0  0
   -6.5787    0.0699    0.5931 C   0  0  0  0  0  0  0  0  0  0  0  0
   -2.7217   -0.1834   -1.3923 C   0  0  0  0  0  0  0  0  0  0  0  0
   -2.9255   -1.3241    0.6328 C   0  0  0  0  0  0  0  0  0  0  0  0
    0.1838    0.0949    0.3807 C   0  0  0  0  0  0  0  0  0  0  0  0
    1.5832   -0.3825    0.2279 C   0  0  0  0  0  0  0  0  0  0  0  0
    2.6040    0.5444    0.2016 C   0  0  0  0  0  0  0  0  0  0  0  0
    1.8151   -1.7374    0.1176 C   0  0  0  0  0  0  0  0  0  0  0  0
    3.9170    0.0958    0.0584 C   0  0  0  0  0  0  0  0  0  0  0  0
    3.1281   -2.1862   -0.0254 C   0  0  0  0  0  0  0  0  0  0  0  0
    4.1790   -1.2695   -0.0549 C   0  0  0  0  0  0  0  0  0  0  0  0
   -4.7221   -0.7876   -1.9556 H   0  0  0  0  0  0  0  0  0  0  0  0
   -4.9290   -1.9471    0.1014 H   0  0  0  0  0  0  0  0  0  0  0  0
   -4.6703    1.8900   -1.5295 H   0  0  0  0  0  0  0  0  0  0  0  0
   -5.0420   -0.1934    2.1669 H   0  0  0  0  0  0  0  0  0  0  0  0
   -3.5373    1.5290    0.8350 H   0  0  0  0  0  0  0  0  0  0  0  0
   -5.1628    2.2022    1.0509 H   0  0  0  0  0  0  0  0  0  0  0  0
   -6.8226    0.2360   -1.5856 H   0  0  0  0  0  0  0  0  0  0  0  0
   -7.0045    1.7632   -0.7023 H   0  0  0  0  0  0  0  0  0  0  0  0
   -7.2044    0.6429    1.2869 H   0  0  0  0  0  0  0  0  0  0  0  0
   -7.0293   -0.9194    0.4655 H   0  0  0  0  0  0  0  0  0  0  0  0
   -2.4342   -1.0096   -2.0568 H   0  0  0  0  0  0  0  0  0  0  0  0
   -2.4303    0.7564   -1.8725 H   0  0  0  0  0  0  0  0  0  0  0  0
   -2.7914   -1.2659    1.7179 H   0  0  0  0  0  0  0  0  0  0  0  0
   -2.6712   -2.3434    0.3116 H   0  0  0  0  0  0  0  0  0  0  0  0
   -0.5882   -1.5728   -0.6770 H   0  0  0  0  0  0  0  0  0  0  0  0
    2.3867    1.6058    0.2759 H   0  0  0  0  0  0  0  0  0  0  0  0
    1.0296   -2.4840    0.1698 H   0  0  0  0  0  0  0  0  0  0  0  0
    3.3158   -3.2541   -0.1053 H   0  0  0  0  0  0  0  0  0  0  0  0
    4.9425    2.5339   -1.9708 H   0  0  0  0  0  0  0  0  0  0  0  0
    6.1100    1.2819   -2.1550 H   0  0  0  0  0  0  0  0  0  0  0  0
  1 24  1  0  0  0  0
  2  4  2  0  0  0  0
  2  5  2  0  0  0  0
  2  8  1  0  0  0  0
  2 22  1  0  0  0  0
  3 18  2  0  0  0  0
  6  7  1  0  0  0  0
  6 16  1  0  0  0  0
  6 17  1  0  0  0  0
  7 18  1  0  0  0  0
  7 39  1  0  0  0  0
  8 43  1  0  0  0  0
  8 44  1  0  0  0  0
  9 10  1  0  0  0  0
  9 11  1  0  0  0  0
  9 16  1  0  0  0  0
  9 25  1  0  0  0  0
 10 12  1  0  0  0  0
 10 17  1  0  0  0  0
 10 26  1  0  0  0  0
 11 13  1  0  0  0  0
 11 14  1  0  0  0  0
 11 27  1  0  0  0  0
 12 13  1  0  0  0  0
 12 15  1  0  0  0  0
 12 28  1  0  0  0  0
 13 29  1  0  0  0  0
 13 30  1  0  0  0  0
 14 15  1  0  0  0  0
 14 31  1  0  0  0  0
 14 32  1  0  0  0  0
 15 33  1  0  0  0  0
 15 34  1  0  0  0  0
 16 35  1  0  0  0  0
 16 36  1  0  0  0  0
 17 37  1  0  0  0  0
 17 38  1  0  0  0  0
 18 19  1  0  0  0  0
 19 20  2  0  0  0  0
 19 21  1  0  0  0  0
 20 22  1  0  0  0  0
 20 40  1  0  0  0  0
 21 23  2  0  0  0  0
 21 41  1  0  0  0  0
 22 24  2  0  0  0  0
 23 24  1  0  0  0  0
 23 42  1  0  0  0  0
M  END
> <PUBCHEM_COMPOUND_CID>
5586

> <PUBCHEM_CONFORMER_RMSD>
0.8

> <PUBCHEM_CONFORMER_DIVERSEORDER>
1
37
47
66
42
13
43
74
6
34
62
46
41
48
81
55
17
35
64
5
72
23
85
24
20
2
61
21
56
27
54
79
73
44
78
36
58
22
28
4
49
53
67
76
14
19
18
3
33
70
12
16
32
71
10
83
30
25
75
50
38
69
9
77
63
29
45
82
68
11
26
65
39
59
80
7
15
8
40
31
52
84
60
51
57

> <PUBCHEM_MMFF94_PARTIAL_CHARGES>
23
1 -0.18
16 0.27
17 0.27
18 0.54
19 0.09
2 1.45
20 -0.15
21 -0.15
22 -0.01
23 -0.15
24 0.18
3 -0.57
39 0.37
4 -0.65
40 0.15
41 0.15
42 0.15
43 0.42
44 0.42
5 -0.65
6 -0.55
7 -0.42
8 -0.98

> <PUBCHEM_EFFECTIVE_ROTOR_COUNT>
5.2

> <PUBCHEM_PHARMACOPHORE_FEATURES>
8
1 3 acceptor
1 4 acceptor
1 5 acceptor
1 7 donor
1 8 donor
5 6 9 10 16 17 rings
6 19 20 21 22 23 24 rings
7 9 10 11 12 13 14 15 rings

> <PUBCHEM_HEAVY_ATOM_COUNT>
24

> <PUBCHEM_ATOM_DEF_STEREO_COUNT>
0

> <PUBCHEM_ATOM_UDEF_STEREO_COUNT>
4

> <PUBCHEM_BOND_DEF_STEREO_COUNT>
0

> <PUBCHEM_BOND_UDEF_STEREO_COUNT>
0

> <PUBCHEM_ISOTOPIC_ATOM_COUNT>
0

> <PUBCHEM_COMPONENT_COUNT>
1

> <PUBCHEM_CACTVS_TAUTO_COUNT>
2

> <PUBCHEM_CONFORMER_ID>
000015D200000001

> <PUBCHEM_MMFF94_ENERGY>
61.2271

> <PUBCHEM_FEATURE_SELFOVERLAP>
40.714

> <PUBCHEM_SHAPE_FINGERPRINT>
10 15 17418090988308518353
10066227 112 18411985797417190605
10411042 1 18048597320992611822
10595046 47 18333736823195845647
10638233 991 17967813838465167657
10835480 77 18411986849077393113
11089746 13 17095529486797395650
11287383 113 17846495928557905698
11315181 36 9151173165001695199
11719270 70 18335707169766678298
12107183 9 17541372883796694163
12166972 35 11455888070468338078
12236239 1 17749109997632048563
12403259 415 17846786238319462758
12516196 113 17676492743617108617
12596602 18 18410009940672602699
12616971 3 18260840310275814694
12730499 353 18273210919884450538
12788726 201 17313377976308752561
12916748 109 17132115757665411669
13073987 5 18340484560509950819
13167372 99 18261109724799540352
13533116 47 18335421305311824370
13955234 65 18270688670549611810
14251764 18 18113617881323547115
14341114 176 18342453755490977421
14528608 73 18187366502189876892
14933364 13 18342736329842185237
15081414 286 18343581841615854116
15183329 4 17530963592024977284
15348495 7 17489582325283862848
15788980 27 18187087269054492335
17844677 252 18342734169452750877
18222031 100 14634870842446641050
18335252 98 18411416177796387483
18608769 82 18341890737451797187
18927931 339 6771869602082025921
19377110 9 13758077423943532341
20281389 69 18411983576681539721
20612939 158 18409166631985463906
21033648 29 17489598895763459285
21150785 3 16733271166291270533
21267235 1 18262512710569557566
21641784 216 18262502788889759312
220451 1 17385444323785675095
23081809 10 17749111110286982615
23198884 109 18333450954657183387
23402539 116 6122495788433930411
23522609 53 17604408744410960921
23559900 14 18335426737759463624
23569914 2 17623343455501867725
239999 70 18411417354243061846
2916195 48 17989209235308785505
29717793 49 17603863442599035750
300161 21 18408046203693019515
3004659 81 18411419553197381954
34797466 226 14345803707733812107
3545911 37 18342457040861338421
4073 2 18059570257009216458
4340502 62 17346601880853757234
5104073 3 17703793686486773913
5283173 99 18200315540582421585
542803 24 17967533480216525995
543368 44 18187930543228807593
7495541 125 13254784729377361695

> <PUBCHEM_SHAPE_MULTIPOLES>
467.08
18.38
1.93
1.06
2.41
0.07
0.23
4.11
0.73
-3.07
-0.06
0.65
0.24
0.27

> <PUBCHEM_SHAPE_SELFOVERLAP>
1000.859

> <PUBCHEM_SHAPE_VOLUME>
263.6

> <PUBCHEM_COORDINATE_TYPE>
2
5
10

$$$$

