3725
  -OEChem-06251223372D

 36 37  0     0  0  0  0  0  0999 V2000
    8.5991    2.9050    0.0000 I   0  0  0  0  0  0  0  0  0  0  0  0
    5.1350    2.9050    0.0000 O   0  0  0  0  0  0  0  0  0  0  0  0
    6.8671    3.9050    0.0000 O   0  0  0  0  0  0  0  0  0  0  0  0
    2.5369   -1.5950    0.0000 O   0  0  0  0  0  0  0  0  0  0  0  0
    6.8671   -2.0950    0.0000 O   0  0  0  0  0  0  0  0  0  0  0  0
    2.5369   -3.5950    0.0000 O   0  0  0  0  0  0  0  0  0  0  0  0
    4.2690    0.4050    0.0000 N   0  0  0  0  0  0  0  0  0  0  0  0
    6.8671    0.9050    0.0000 C   0  0  0  0  0  0  0  0  0  0  0  0
    5.1350   -2.0950    0.0000 C   0  0  0  0  0  0  0  0  0  0  0  0
    6.0010    1.4050    0.0000 C   0  0  0  0  0  0  0  0  0  0  0  0
    6.8671   -0.0950    0.0000 C   0  0  0  0  0  0  0  0  0  0  0  0
    6.0010    2.4050    0.0000 C   0  0  0  0  0  0  0  0  0  0  0  0
    7.7331    1.4050    0.0000 C   0  0  0  0  0  0  0  0  0  0  0  0
    6.0010   -0.5950    0.0000 C   0  0  0  0  0  0  0  0  0  0  0  0
    6.0010   -1.5950    0.0000 C   0  0  0  0  0  0  0  0  0  0  0  0
    6.8671    2.9050    0.0000 C   0  0  0  0  0  0  0  0  0  0  0  0
    7.7331    2.4050    0.0000 C   0  0  0  0  0  0  0  0  0  0  0  0
    4.2690   -1.5950    0.0000 C   0  0  0  0  0  0  0  0  0  0  0  0
    5.1350   -3.0950    0.0000 C   0  0  0  0  0  0  0  0  0  0  0  0
    3.4030   -2.0950    0.0000 C   0  0  0  0  0  0  0  0  0  0  0  0
    4.2690   -3.5950    0.0000 C   0  0  0  0  0  0  0  0  0  0  0  0
    3.4030   -3.0950    0.0000 C   0  0  0  0  0  0  0  0  0  0  0  0
    5.1350   -0.0950    0.0000 C   0  0  0  0  0  0  0  0  0  0  0  0
    4.2690    2.4050    0.0000 C   0  0  0  0  0  0  0  0  0  0  0  0
    5.4641    1.0950    0.0000 H   0  0  0  0  0  0  0  0  0  0  0  0
    7.4040   -0.4050    0.0000 H   0  0  0  0  0  0  0  0  0  0  0  0
    8.2700    1.0950    0.0000 H   0  0  0  0  0  0  0  0  0  0  0  0
    4.2690   -0.9750    0.0000 H   0  0  0  0  0  0  0  0  0  0  0  0
    5.6720   -3.4050    0.0000 H   0  0  0  0  0  0  0  0  0  0  0  0
    4.2690   -4.2150    0.0000 H   0  0  0  0  0  0  0  0  0  0  0  0
    7.4040    4.2150    0.0000 H   0  0  0  0  0  0  0  0  0  0  0  0
    3.9590    2.9419    0.0000 H   0  0  0  0  0  0  0  0  0  0  0  0
    3.7320    2.0950    0.0000 H   0  0  0  0  0  0  0  0  0  0  0  0
    4.5790    1.8681    0.0000 H   0  0  0  0  0  0  0  0  0  0  0  0
    2.0000   -1.9050    0.0000 H   0  0  0  0  0  0  0  0  0  0  0  0
    2.5369   -4.2150    0.0000 H   0  0  0  0  0  0  0  0  0  0  0  0
  1 17  1  0  0  0  0
  2 12  1  0  0  0  0
  2 24  1  0  0  0  0
  3 16  1  0  0  0  0
  3 31  1  0  0  0  0
  4 20  1  0  0  0  0
  4 35  1  0  0  0  0
  5 15  2  0  0  0  0
  6 22  1  0  0  0  0
  6 36  1  0  0  0  0
  7 23  3  0  0  0  0
  8 10  2  0  0  0  0
  8 11  1  0  0  0  0
  8 13  1  0  0  0  0
  9 15  1  0  0  0  0
  9 18  2  0  0  0  0
  9 19  1  0  0  0  0
 10 12  1  0  0  0  0
 10 25  1  0  0  0  0
 11 14  2  3  0  0  0
 11 26  1  0  0  0  0
 12 16  2  0  0  0  0
 13 17  2  0  0  0  0
 13 27  1  0  0  0  0
 14 15  1  0  0  0  0
 14 23  1  0  0  0  0
 16 17  1  0  0  0  0
 18 20  1  0  0  0  0
 18 28  1  0  0  0  0
 19 21  2  0  0  0  0
 19 29  1  0  0  0  0
 20 22  2  0  0  0  0
 21 22  1  0  0  0  0
 21 30  1  0  0  0  0
 24 32  1  0  0  0  0
 24 33  1  0  0  0  0
 24 34  1  0  0  0  0
M  END
> <PUBCHEM_COMPOUND_CID>
3725

> <PUBCHEM_COMPOUND_CANONICALIZED>
1

> <PUBCHEM_CACTVS_COMPLEXITY>
542

> <PUBCHEM_CACTVS_HBOND_ACCEPTOR>
6

> <PUBCHEM_CACTVS_HBOND_DONOR>
3

> <PUBCHEM_CACTVS_ROTATABLE_BOND>
4

> <PUBCHEM_CACTVS_SUBSKEYS>
AAADccB6OAAAAgAAAAAAAAAAAAAAAAAAAAAwYAAAAAAAAAABQAAAHgAgCAAADASDmAIyBoAABgCYBqBSAAAiCAAkIAAIiAEGiMgNpjKGNRqAcSMkwBELuY+KzLDOIAABAAAAQABAAAIAAACAAAAAAAAAAA==

> <PUBCHEM_IUPAC_OPENEYE_NAME>
2-(3,4-dihydroxybenzoyl)-3-(4-hydroxy-3-iodo-5-methoxy-phenyl)prop-2-enenitrile

> <PUBCHEM_IUPAC_CAS_NAME>
2-[(3,4-dihydroxyphenyl)-oxomethyl]-3-(4-hydroxy-3-iodo-5-methoxyphenyl)-2-propenenitrile

> <PUBCHEM_IUPAC_NAME>
2-(3,4-dihydroxybenzoyl)-3-(4-hydroxy-3-iodo-5-methoxyphenyl)prop-2-enenitrile

> <PUBCHEM_IUPAC_SYSTEMATIC_NAME>
2-[3,4-bis(oxidanyl)phenyl]carbonyl-3-(3-iodanyl-5-methoxy-4-oxidanyl-phenyl)prop-2-enenitrile

> <PUBCHEM_IUPAC_TRADITIONAL_NAME>
3-(4-hydroxy-3-iodo-5-methoxy-phenyl)-2-protocatechuoyl-acrylonitrile

> <PUBCHEM_IUPAC_INCHI>
InChI=1S/C17H12INO5/c1-24-15-6-9(5-12(18)17(15)23)4-11(8-19)16(22)10-2-3-13(20)14(21)7-10/h2-7,20-21,23H,1H3

> <PUBCHEM_IUPAC_INCHIKEY>
HSRMHXWCTRFVHK-UHFFFAOYSA-N

> <PUBCHEM_XLOGP3_AA>
3.2

> <PUBCHEM_EXACT_MASS>
436.97602

> <PUBCHEM_MOLECULAR_FORMULA>
C17H12INO5

> <PUBCHEM_MOLECULAR_WEIGHT>
437.18535

> <PUBCHEM_OPENEYE_CAN_SMILES>
COC1=C(C(=CC(=C1)C=C(C#N)C(=O)C2=CC(=C(C=C2)O)O)I)O

> <PUBCHEM_OPENEYE_ISO_SMILES>
COC1=C(C(=CC(=C1)C=C(C#N)C(=O)C2=CC(=C(C=C2)O)O)I)O

> <PUBCHEM_CACTVS_TPSA>
111

> <PUBCHEM_MONOISOTOPIC_WEIGHT>
436.97602

> <PUBCHEM_TOTAL_CHARGE>
0

> <PUBCHEM_HEAVY_ATOM_COUNT>
24

> <PUBCHEM_ATOM_DEF_STEREO_COUNT>
0

> <PUBCHEM_ATOM_UDEF_STEREO_COUNT>
0

> <PUBCHEM_BOND_DEF_STEREO_COUNT>
0

> <PUBCHEM_BOND_UDEF_STEREO_COUNT>
1

> <PUBCHEM_ISOTOPIC_ATOM_COUNT>
0

> <PUBCHEM_COMPONENT_COUNT>
1

> <PUBCHEM_CACTVS_TAUTO_COUNT>
78

> <PUBCHEM_COORDINATE_TYPE>
1
5
255

> <PUBCHEM_BONDANNOTATIONS>
10  12  8
11  14  1
12  16  8
13  17  8
16  17  8
18  20  8
19  21  8
20  22  8
21  22  8
8  10  8
8  13  8
9  18  8
9  19  8

$$$$

