6708
  -OEChem-06261201273D

 24 26  0     0  0  0  0  0  0999 V2000
   -2.6778    2.7754    0.0002 Cl  0  0  0  0  0  0  0  0  0  0  0  0
    2.6783    2.7753   -0.0006 Cl  0  0  0  0  0  0  0  0  0  0  0  0
    0.0001    2.3222   -0.0013 O   0  0  0  0  0  0  0  0  0  0  0  0
   -0.0002   -3.0190   -0.0011 O   0  0  0  0  0  0  0  0  0  0  0  0
   -1.2730    0.3515   -0.0002 C   0  0  0  0  0  0  0  0  0  0  0  0
    1.2730    0.3515    0.0000 C   0  0  0  0  0  0  0  0  0  0  0  0
   -1.2730   -1.0449   -0.0002 C   0  0  0  0  0  0  0  0  0  0  0  0
    1.2730   -1.0449   -0.0003 C   0  0  0  0  0  0  0  0  0  0  0  0
    0.0000    1.1008   -0.0003 C   0  0  0  0  0  0  0  0  0  0  0  0
   -0.0001   -1.7942   -0.0001 C   0  0  0  0  0  0  0  0  0  0  0  0
   -2.4866    1.0498    0.0001 C   0  0  0  0  0  0  0  0  0  0  0  0
    2.4866    1.0497    0.0008 C   0  0  0  0  0  0  0  0  0  0  0  0
   -2.4865   -1.7431    0.0001 C   0  0  0  0  0  0  0  0  0  0  0  0
    2.4865   -1.7432   -0.0002 C   0  0  0  0  0  0  0  0  0  0  0  0
   -3.6936    0.3501    0.0007 C   0  0  0  0  0  0  0  0  0  0  0  0
    3.6935    0.3499    0.0011 C   0  0  0  0  0  0  0  0  0  0  0  0
   -3.6936   -1.0434    0.0007 C   0  0  0  0  0  0  0  0  0  0  0  0
    3.6935   -1.0436    0.0006 C   0  0  0  0  0  0  0  0  0  0  0  0
   -2.5136   -2.8295    0.0002 H   0  0  0  0  0  0  0  0  0  0  0  0
    2.5134   -2.8295   -0.0003 H   0  0  0  0  0  0  0  0  0  0  0  0
   -4.6492    0.8696    0.0010 H   0  0  0  0  0  0  0  0  0  0  0  0
    4.6491    0.8693    0.0013 H   0  0  0  0  0  0  0  0  0  0  0  0
   -4.6345   -1.5861    0.0010 H   0  0  0  0  0  0  0  0  0  0  0  0
    4.6344   -1.5863    0.0008 H   0  0  0  0  0  0  0  0  0  0  0  0
  1 11  1  0  0  0  0
  2 12  1  0  0  0  0
  3  9  2  0  0  0  0
  4 10  2  0  0  0  0
  5  7  2  0  0  0  0
  5  9  1  0  0  0  0
  5 11  1  0  0  0  0
  6  8  2  0  0  0  0
  6  9  1  0  0  0  0
  6 12  1  0  0  0  0
  7 10  1  0  0  0  0
  7 13  1  0  0  0  0
  8 10  1  0  0  0  0
  8 14  1  0  0  0  0
 11 15  2  0  0  0  0
 12 16  2  0  0  0  0
 13 17  2  0  0  0  0
 13 19  1  0  0  0  0
 14 18  2  0  0  0  0
 14 20  1  0  0  0  0
 15 17  1  0  0  0  0
 15 21  1  0  0  0  0
 16 18  1  0  0  0  0
 16 22  1  0  0  0  0
 17 23  1  0  0  0  0
 18 24  1  0  0  0  0
M  END
> <PUBCHEM_COMPOUND_CID>
6708

> <PUBCHEM_CONFORMER_RMSD>
0.4

> <PUBCHEM_CONFORMER_DIVERSEORDER>
1

> <PUBCHEM_MMFF94_PARTIAL_CHARGES>
24
1 -0.18
10 0.4
11 0.18
12 0.18
13 -0.15
14 -0.15
15 -0.15
16 -0.15
17 -0.15
18 -0.15
19 0.15
2 -0.18
20 0.15
21 0.15
22 0.15
23 0.15
24 0.15
3 -0.57
4 -0.57
5 0.09
6 0.09
7 0.09
8 0.09
9 0.4

> <PUBCHEM_EFFECTIVE_ROTOR_COUNT>
0

> <PUBCHEM_PHARMACOPHORE_FEATURES>
5
1 3 acceptor
1 4 acceptor
6 5 6 7 8 9 10 rings
6 5 7 11 13 15 17 rings
6 6 8 12 14 16 18 rings

> <PUBCHEM_HEAVY_ATOM_COUNT>
18

> <PUBCHEM_ATOM_DEF_STEREO_COUNT>
0

> <PUBCHEM_ATOM_UDEF_STEREO_COUNT>
0

> <PUBCHEM_BOND_DEF_STEREO_COUNT>
0

> <PUBCHEM_BOND_UDEF_STEREO_COUNT>
0

> <PUBCHEM_ISOTOPIC_ATOM_COUNT>
0

> <PUBCHEM_COMPONENT_COUNT>
1

> <PUBCHEM_CACTVS_TAUTO_COUNT>
1

> <PUBCHEM_CONFORMER_ID>
00001A3400000001

> <PUBCHEM_MMFF94_ENERGY>
61.0644

> <PUBCHEM_FEATURE_SELFOVERLAP>
25.414

> <PUBCHEM_SHAPE_FINGERPRINT>
10062212 137 18268158715204146987
10411042 1 15672385807928647879
10608611 8 18410858758663304961
10616163 171 18409727365677842215
10967382 1 18122626050407544577
1100329 8 16609135560137715400
11132069 177 18409736170191890114
11471102 20 18411142441295274054
12403259 226 18410578383198241572
12403260 363 18410584980267728903
13140716 1 18410574032396293184
13221675 6 18410856559645311170
13897977 150 18411140268115662197
14178342 30 18193568976047083424
14223421 5 18411417267636139129
15196674 1 18410855460128265735
15442244 35 18339080496666335328
15536298 74 18334294241088672496
16945 1 18410856563934867303
18186145 218 18260258681250750552
19591789 44 18410854360616858818
200 152 18113910346968574727
20510252 161 18333731295124588617
21267235 1 18410846668330568098
21501502 16 18410854377801801380
221490 88 18340478985357771610
2334 1 18410575058893281637
23366157 5 18059576854648246432
23402539 116 18334305248921443662
23463225 33 18412545418232510350
23559900 14 18335143094388809432
238 59 17193800726854017965
2748010 2 18411138034621807583
335352 9 17978228588475159238
350125 39 18411132537106282377
5104073 3 18411136930857404897
7364860 26 18335983069648459072
7832392 63 18193557997878299440
8809292 202 18271802406602273331
9709674 26 18409443678714197190

> <PUBCHEM_SHAPE_MULTIPOLES>
362.43
6.37
3.15
0.61
0
0.81
0
0.56
0
0
0
0
0.02
0

> <PUBCHEM_SHAPE_SELFOVERLAP>
802.573

> <PUBCHEM_SHAPE_VOLUME>
194.4

> <PUBCHEM_COORDINATE_TYPE>
2
5
10

$$$$

