12314
  -OEChem-06261206483D

 11 10  0     0  0  0  0  0  0999 V2000
   -3.0153    0.5588    0.0065 I   0  0  0  0  0  0  0  0  0  0  0  0
    3.0153    0.5587    0.0064 I   0  0  0  0  0  0  0  0  0  0  0  0
    0.0000    0.2051   -0.0182 C   0  0  0  0  0  0  0  0  0  0  0  0
   -1.2595   -0.6613    0.0025 C   0  0  0  0  0  0  0  0  0  0  0  0
    1.2595   -0.6612    0.0028 C   0  0  0  0  0  0  0  0  0  0  0  0
   -0.0001    0.8798    0.8476 H   0  0  0  0  0  0  0  0  0  0  0  0
    0.0001    0.8405   -0.9132 H   0  0  0  0  0  0  0  0  0  0  0  0
   -1.2764   -1.3204   -0.8726 H   0  0  0  0  0  0  0  0  0  0  0  0
   -1.2617   -1.3003    0.8926 H   0  0  0  0  0  0  0  0  0  0  0  0
    1.2764   -1.3206   -0.8722 H   0  0  0  0  0  0  0  0  0  0  0  0
    1.2617   -1.3000    0.8931 H   0  0  0  0  0  0  0  0  0  0  0  0
  1  4  1  0  0  0  0
  2  5  1  0  0  0  0
  3  4  1  0  0  0  0
  3  5  1  0  0  0  0
  3  6  1  0  0  0  0
  3  7  1  0  0  0  0
  4  8  1  0  0  0  0
  4  9  1  0  0  0  0
  5 10  1  0  0  0  0
  5 11  1  0  0  0  0
M  END
> <PUBCHEM_COMPOUND_CID>
12314

> <PUBCHEM_CONFORMER_RMSD>
0.4

> <PUBCHEM_CONFORMER_DIVERSEORDER>
1
5
4
3
2

> <PUBCHEM_MMFF94_PARTIAL_CHARGES>
4
1 -0.19
2 -0.19
4 0.19
5 0.19

> <PUBCHEM_EFFECTIVE_ROTOR_COUNT>
2

> <PUBCHEM_PHARMACOPHORE_FEATURES>
2
1 1 hydrophobe
1 2 hydrophobe

> <PUBCHEM_HEAVY_ATOM_COUNT>
5

> <PUBCHEM_ATOM_DEF_STEREO_COUNT>
0

> <PUBCHEM_ATOM_UDEF_STEREO_COUNT>
0

> <PUBCHEM_BOND_DEF_STEREO_COUNT>
0

> <PUBCHEM_BOND_UDEF_STEREO_COUNT>
0

> <PUBCHEM_ISOTOPIC_ATOM_COUNT>
0

> <PUBCHEM_COMPONENT_COUNT>
1

> <PUBCHEM_CACTVS_TAUTO_COUNT>
1

> <PUBCHEM_CONFORMER_ID>
0000301A00000001

> <PUBCHEM_MMFF94_ENERGY>
1.5835

> <PUBCHEM_FEATURE_SELFOVERLAP>
10.149

> <PUBCHEM_SHAPE_FINGERPRINT>
12932741 1 15647347285678081094
14325111 11 18410575084684223395
14390081 3 18334296461217772329
20211469 26 11312055435627061977
20651381 32 17240477026935150692
20765181 27 18410866459539770629
21293036 1 16008752389756777329
5460574 1 9223229650346924647

> <PUBCHEM_SHAPE_MULTIPOLES>
126.77
5.91
1.03
0.73
0
0.06
0
1.77
-0.02
0
0
0
0.05
0

> <PUBCHEM_SHAPE_SELFOVERLAP>
178.751

> <PUBCHEM_SHAPE_VOLUME>
100.8

> <PUBCHEM_COORDINATE_TYPE>
2
5
10

$$$$

