5855
  -OEChem-06261200562D

 55 58  0     1  0  0  0  0  0999 V2000
   10.1272    2.0324    0.0000 O   0  0  0  0  0  0  0  0  0  0  0  0
    3.3270   -0.2800    0.0000 O   0  0  0  0  0  0  0  0  0  0  0  0
    6.6389    0.1413    0.0000 C   0  0  1  0  0  0  0  0  0  0  0  0
    7.5049   -0.3587    0.0000 C   0  0  2  0  0  0  0  0  0  0  0  0
    5.7289   -0.3655    0.0000 C   0  0  2  0  0  0  0  0  0  0  0  0
    8.3710    0.1413    0.0000 C   0  0  1  0  0  0  0  0  0  0  0  0
    8.3710    1.1413    0.0000 C   0  0  2  0  0  0  0  0  0  0  0  0
    5.7209   -1.4071    0.0000 C   0  0  1  0  0  0  0  0  0  0  0  0
    6.6389    1.1413    0.0000 C   0  0  0  0  0  0  0  0  0  0  0  0
    7.5049    1.6413    0.0000 C   0  0  0  0  0  0  0  0  0  0  0  0
    9.3172    1.4461    0.0000 C   0  0  2  0  0  0  0  0  0  0  0  0
    7.5210   -1.4002    0.0000 C   0  0  0  0  0  0  0  0  0  0  0  0
    9.3172   -0.1634    0.0000 C   0  0  0  0  0  0  0  0  0  0  0  0
    4.7458   -0.0405    0.0000 C   0  0  0  0  0  0  0  0  0  0  0  0
    6.6230   -1.9279    0.0000 C   0  0  0  0  0  0  0  0  0  0  0  0
    9.9008    0.6413    0.0000 C   0  0  0  0  0  0  0  0  0  0  0  0
    4.7329   -1.7169    0.0000 C   0  0  0  0  0  0  0  0  0  0  0  0
    4.1314   -0.8740    0.0000 C   0  0  1  0  0  0  0  0  0  0  0  0
    5.7366    0.6344    0.0000 C   0  0  0  0  0  0  0  0  0  0  0  0
    8.3710    2.1413    0.0000 C   0  0  0  0  0  0  0  0  0  0  0  0
    9.0098    2.3976    0.0000 C   0  0  0  0  0  0  0  0  0  0  0  0
    3.3179   -1.4556    0.0000 C   0  0  0  0  0  0  0  0  0  0  0  0
    2.5044   -2.0371    0.0000 C   0  0  0  0  0  0  0  0  0  0  0  0
    7.3750    0.5663    0.0000 H   0  0  0  0  0  0  0  0  0  0  0  0
    8.2443   -0.7780    0.0000 H   0  0  0  0  0  0  0  0  0  0  0  0
    8.4609   -0.7039    0.0000 H   0  0  0  0  0  0  0  0  0  0  0  0
    5.6277   -2.2520    0.0000 H   0  0  0  0  0  0  0  0  0  0  0  0
    6.4269    1.7239    0.0000 H   0  0  0  0  0  0  0  0  0  0  0  0
    6.0283    1.0337    0.0000 H   0  0  0  0  0  0  0  0  0  0  0  0
    7.9035    2.1163    0.0000 H   0  0  0  0  0  0  0  0  0  0  0  0
    7.1064    2.1163    0.0000 H   0  0  0  0  0  0  0  0  0  0  0  0
    7.7390   -1.9806    0.0000 H   0  0  0  0  0  0  0  0  0  0  0  0
    8.1302   -1.2847    0.0000 H   0  0  0  0  0  0  0  0  0  0  0  0
    9.0662   -0.7303    0.0000 H   0  0  0  0  0  0  0  0  0  0  0  0
    9.8546   -0.4726    0.0000 H   0  0  0  0  0  0  0  0  0  0  0  0
    5.0012    0.5244    0.0000 H   0  0  0  0  0  0  0  0  0  0  0  0
    4.2108    0.2728    0.0000 H   0  0  0  0  0  0  0  0  0  0  0  0
    6.2257   -2.4039    0.0000 H   0  0  0  0  0  0  0  0  0  0  0  0
    7.0239   -2.4008    0.0000 H   0  0  0  0  0  0  0  0  0  0  0  0
   10.3617    0.2266    0.0000 H   0  0  0  0  0  0  0  0  0  0  0  0
   10.3617    1.0560    0.0000 H   0  0  0  0  0  0  0  0  0  0  0  0
    4.1931   -2.0220    0.0000 H   0  0  0  0  0  0  0  0  0  0  0  0
    4.9795   -2.2858    0.0000 H   0  0  0  0  0  0  0  0  0  0  0  0
    6.3566    0.6297    0.0000 H   0  0  0  0  0  0  0  0  0  0  0  0
    5.7414    1.2544    0.0000 H   0  0  0  0  0  0  0  0  0  0  0  0
    5.1166    0.6392    0.0000 H   0  0  0  0  0  0  0  0  0  0  0  0
    8.9910    2.1413    0.0000 H   0  0  0  0  0  0  0  0  0  0  0  0
    8.3710    2.7613    0.0000 H   0  0  0  0  0  0  0  0  0  0  0  0
    7.7510    2.1413    0.0000 H   0  0  0  0  0  0  0  0  0  0  0  0
    9.5998    2.5882    0.0000 H   0  0  0  0  0  0  0  0  0  0  0  0
    8.8192    2.9876    0.0000 H   0  0  0  0  0  0  0  0  0  0  0  0
    8.4198    2.2071    0.0000 H   0  0  0  0  0  0  0  0  0  0  0  0
   10.6932    1.7793    0.0000 H   0  0  0  0  0  0  0  0  0  0  0  0
    3.3965    0.3361    0.0000 H   0  0  0  0  0  0  0  0  0  0  0  0
    2.0000   -2.3976    0.0000 H   0  0  0  0  0  0  0  0  0  0  0  0
 11  1  1  1  0  0  0
  1 53  1  0  0  0  0
 18  2  1  1  0  0  0
  2 54  1  0  0  0  0
  3  4  1  0  0  0  0
  3  5  1  0  0  0  0
  3  9  1  0  0  0  0
  3 24  1  6  0  0  0
  4  6  1  0  0  0  0
  4 12  1  0  0  0  0
  4 25  1  1  0  0  0
  5  8  1  0  0  0  0
  5 14  1  0  0  0  0
  5 19  1  1  0  0  0
  6  7  1  0  0  0  0
  6 13  1  0  0  0  0
  6 26  1  6  0  0  0
  7 10  1  0  0  0  0
  7 11  1  0  0  0  0
  7 20  1  1  0  0  0
  8 15  1  0  0  0  0
  8 17  1  0  0  0  0
  8 27  1  6  0  0  0
  9 10  1  0  0  0  0
  9 28  1  0  0  0  0
  9 29  1  0  0  0  0
 10 30  1  0  0  0  0
 10 31  1  0  0  0  0
 11 16  1  0  0  0  0
 11 21  1  0  0  0  0
 12 15  1  0  0  0  0
 12 32  1  0  0  0  0
 12 33  1  0  0  0  0
 13 16  1  0  0  0  0
 13 34  1  0  0  0  0
 13 35  1  0  0  0  0
 14 18  1  0  0  0  0
 14 36  1  0  0  0  0
 14 37  1  0  0  0  0
 15 38  1  0  0  0  0
 15 39  1  0  0  0  0
 16 40  1  0  0  0  0
 16 41  1  0  0  0  0
 17 18  1  0  0  0  0
 17 42  1  0  0  0  0
 17 43  1  0  0  0  0
 18 22  1  0  0  0  0
 19 44  1  0  0  0  0
 19 45  1  0  0  0  0
 19 46  1  0  0  0  0
 20 47  1  0  0  0  0
 20 48  1  0  0  0  0
 20 49  1  0  0  0  0
 21 50  1  0  0  0  0
 21 51  1  0  0  0  0
 21 52  1  0  0  0  0
 22 23  3  0  0  0  0
 23 55  1  0  0  0  0
M  END
> <PUBCHEM_COMPOUND_CID>
5855

> <PUBCHEM_COMPOUND_CANONICALIZED>
1

> <PUBCHEM_CACTVS_COMPLEXITY>
576

> <PUBCHEM_CACTVS_HBOND_ACCEPTOR>
2

> <PUBCHEM_CACTVS_HBOND_DONOR>
2

> <PUBCHEM_CACTVS_ROTATABLE_BOND>
1

> <PUBCHEM_CACTVS_SUBSKEYS>
AAADcfB4MAAAAAAAAAAAAAAAAAAAAYMAAAAwYAAAAAAAAGDAAAAAGgAACAAAD0SAgAACAAAAAgBAGAAAAAgAAAAAAAAAAAAAAAAAAAIAAAAAQAAEAAAAAAGAwPAPgAAAAAAAAACAAAQAACAAAYAADAAAAA==

> <PUBCHEM_IUPAC_OPENEYE_NAME>
(2R,3aS,3bS,5aS,6S,8aS,8bR,10aS)-2-ethynyl-3a,5a,6-trimethyl-1,3,3b,4,5,7,8,8a,8b,9,10,10a-dodecahydroindeno[5,4-e]indene-2,6-diol

> <PUBCHEM_IUPAC_CAS_NAME>
(2R,3aS,3bS,5aS,6S,8aS,8bR,10aS)-2-ethynyl-3a,5a,6-trimethyl-1,3,3b,4,5,7,8,8a,8b,9,10,10a-dodecahydroindeno[5,4-e]indene-2,6-diol

> <PUBCHEM_IUPAC_NAME>
(2R,3aS,3bS,5aS,6S,8aS,8bR,10aS)-2-ethynyl-3a,5a,6-trimethyl-1,3,3b,4,5,7,8,8a,8b,9,10,10a-dodecahydroindeno[5,4-e]indene-2,6-diol

> <PUBCHEM_IUPAC_SYSTEMATIC_NAME>
(2R,3aS,3bS,5aS,6S,8aS,8bR,10aS)-2-ethynyl-3a,5a,6-trimethyl-1,3,3b,4,5,7,8,8a,8b,9,10,10a-dodecahydroindeno[5,4-e]indene-2,6-diol

> <PUBCHEM_IUPAC_TRADITIONAL_NAME>
(2R,3aS,3bS,5aS,6S,8aS,8bR,10aS)-2-ethynyl-3a,5a,6-trimethyl-1,3,3b,4,5,7,8,8a,8b,9,10,10a-dodecahydroinden[5,4-e]indene-2,6-diol

> <PUBCHEM_IUPAC_INCHI>
InChI=1S/C21H32O2/c1-5-21(23)12-14-6-7-15-16(18(14,2)13-21)8-10-19(3)17(15)9-11-20(19,4)22/h1,14-17,22-23H,6-13H2,2-4H3/t14-,15+,16-,17-,18-,19-,20-,21+/m0/s1

> <PUBCHEM_IUPAC_INCHIKEY>
CKVARAAULLDWSS-OCHQKFOUSA-N

> <PUBCHEM_XLOGP3_AA>
3.9

> <PUBCHEM_EXACT_MASS>
316.24023

> <PUBCHEM_MOLECULAR_FORMULA>
C21H32O2

> <PUBCHEM_MOLECULAR_WEIGHT>
316.47758

> <PUBCHEM_OPENEYE_CAN_SMILES>
CC12CCC3C(C1CCC2(C)O)CCC4C3(CC(C4)(C#C)O)C

> <PUBCHEM_OPENEYE_ISO_SMILES>
C[C@]12CC[C@H]3[C@H]([C@@H]1CC[C@]2(C)O)CC[C@@H]4[C@@]3(C[C@](C4)(C#C)O)C

> <PUBCHEM_CACTVS_TPSA>
40.5

> <PUBCHEM_MONOISOTOPIC_WEIGHT>
316.24023

> <PUBCHEM_TOTAL_CHARGE>
0

> <PUBCHEM_HEAVY_ATOM_COUNT>
23

> <PUBCHEM_ATOM_DEF_STEREO_COUNT>
8

> <PUBCHEM_ATOM_UDEF_STEREO_COUNT>
0

> <PUBCHEM_BOND_DEF_STEREO_COUNT>
0

> <PUBCHEM_BOND_UDEF_STEREO_COUNT>
0

> <PUBCHEM_ISOTOPIC_ATOM_COUNT>
0

> <PUBCHEM_COMPONENT_COUNT>
1

> <PUBCHEM_CACTVS_TAUTO_COUNT>
1

> <PUBCHEM_COORDINATE_TYPE>
1
5
255

> <PUBCHEM_BONDANNOTATIONS>
11  1  5
18  2  5
3  24  6
4  25  5
5  19  5
6  26  6
7  20  5
8  27  6

$$$$

