11911
  -OEChem-06261206162D

 19 20  0     0  0  0  0  0  0999 V2000
    4.6260    1.6723    0.0000 N   0  0  0  0  0  0  0  0  0  0  0  0
    2.8660   -1.3623    0.0000 N   0  0  0  0  0  0  0  0  0  0  0  0
    3.7320    0.1377    0.0000 C   0  0  0  0  0  0  0  0  0  0  0  0
    3.7320    1.1377    0.0000 C   0  0  0  0  0  0  0  0  0  0  0  0
    2.8660   -0.3623    0.0000 C   0  0  0  0  0  0  0  0  0  0  0  0
    4.6260   -0.3970    0.0000 C   0  0  0  0  0  0  0  0  0  0  0  0
    2.8660    1.6377    0.0000 C   0  0  0  0  0  0  0  0  0  0  0  0
    2.0000    0.1377    0.0000 C   0  0  0  0  0  0  0  0  0  0  0  0
    2.0000    1.1377    0.0000 C   0  0  0  0  0  0  0  0  0  0  0  0
    5.5321    0.1169    0.0000 C   0  0  0  0  0  0  0  0  0  0  0  0
    5.5321    1.1585    0.0000 C   0  0  0  0  0  0  0  0  0  0  0  0
    4.6188   -1.0170    0.0000 H   0  0  0  0  0  0  0  0  0  0  0  0
    2.8660    2.2577    0.0000 H   0  0  0  0  0  0  0  0  0  0  0  0
    1.4631   -0.1723    0.0000 H   0  0  0  0  0  0  0  0  0  0  0  0
    1.4631    1.4477    0.0000 H   0  0  0  0  0  0  0  0  0  0  0  0
    6.0678   -0.1952    0.0000 H   0  0  0  0  0  0  0  0  0  0  0  0
    6.0678    1.4706    0.0000 H   0  0  0  0  0  0  0  0  0  0  0  0
    2.3291   -1.6723    0.0000 H   0  0  0  0  0  0  0  0  0  0  0  0
    3.4030   -1.6723    0.0000 H   0  0  0  0  0  0  0  0  0  0  0  0
  1  4  1  0  0  0  0
  1 11  2  0  0  0  0
  2  5  1  0  0  0  0
  2 18  1  0  0  0  0
  2 19  1  0  0  0  0
  3  4  1  0  0  0  0
  3  5  2  0  0  0  0
  3  6  1  0  0  0  0
  4  7  2  0  0  0  0
  5  8  1  0  0  0  0
  6 10  2  0  0  0  0
  6 12  1  0  0  0  0
  7  9  1  0  0  0  0
  7 13  1  0  0  0  0
  8  9  2  0  0  0  0
  8 14  1  0  0  0  0
  9 15  1  0  0  0  0
 10 11  1  0  0  0  0
 10 16  1  0  0  0  0
 11 17  1  0  0  0  0
M  END
> <PUBCHEM_COMPOUND_CID>
11911

> <PUBCHEM_COMPOUND_CANONICALIZED>
1

> <PUBCHEM_CACTVS_COMPLEXITY>
136

> <PUBCHEM_CACTVS_HBOND_ACCEPTOR>
2

> <PUBCHEM_CACTVS_HBOND_DONOR>
1

> <PUBCHEM_CACTVS_ROTATABLE_BOND>
0

> <PUBCHEM_CACTVS_SUBSKEYS>
AAADccBzAAAAAAAAAAAAAAAAAAAAAAAAAAA8QAAAAAAAAACx8AAAHAAQAAAADAjBHgQ8wPJIEACgAzRnRACCgCAxAiAI2CA4ZJgIIOLA0dGEJAhgkADIyAcQgIAOAAAAAAQCAAAAAAAACAQAAAAAAAAAAA==

> <PUBCHEM_IUPAC_OPENEYE_NAME>
quinolin-5-amine

> <PUBCHEM_IUPAC_CAS_NAME>
5-quinolinamine

> <PUBCHEM_IUPAC_NAME>
quinolin-5-amine

> <PUBCHEM_IUPAC_SYSTEMATIC_NAME>
quinolin-5-amine

> <PUBCHEM_IUPAC_TRADITIONAL_NAME>
5-quinolylamine

> <PUBCHEM_IUPAC_INCHI>
InChI=1S/C9H8N2/c10-8-4-1-5-9-7(8)3-2-6-11-9/h1-6H,10H2

> <PUBCHEM_IUPAC_INCHIKEY>
XMIAFAKRAAMSGX-UHFFFAOYSA-N

> <PUBCHEM_XLOGP3>
1.2

> <PUBCHEM_EXACT_MASS>
144.068748

> <PUBCHEM_MOLECULAR_FORMULA>
C9H8N2

> <PUBCHEM_MOLECULAR_WEIGHT>
144.17322

> <PUBCHEM_OPENEYE_CAN_SMILES>
C1=CC2=C(C=CC=N2)C(=C1)N

> <PUBCHEM_OPENEYE_ISO_SMILES>
C1=CC2=C(C=CC=N2)C(=C1)N

> <PUBCHEM_CACTVS_TPSA>
38.9

> <PUBCHEM_MONOISOTOPIC_WEIGHT>
144.068748

> <PUBCHEM_TOTAL_CHARGE>
0

> <PUBCHEM_HEAVY_ATOM_COUNT>
11

> <PUBCHEM_ATOM_DEF_STEREO_COUNT>
0

> <PUBCHEM_ATOM_UDEF_STEREO_COUNT>
0

> <PUBCHEM_BOND_DEF_STEREO_COUNT>
0

> <PUBCHEM_BOND_UDEF_STEREO_COUNT>
0

> <PUBCHEM_ISOTOPIC_ATOM_COUNT>
0

> <PUBCHEM_COMPONENT_COUNT>
1

> <PUBCHEM_CACTVS_TAUTO_COUNT>
3

> <PUBCHEM_COORDINATE_TYPE>
1
5
255

> <PUBCHEM_BONDANNOTATIONS>
1  11  8
1  4  8
10  11  8
3  4  8
3  5  8
3  6  8
4  7  8
5  8  8
6  10  8
7  9  8
8  9  8

$$$$

