7680
  -OEChem-06261202143D

 19 19  0     0  0  0  0  0  0999 V2000
    1.9411    0.1226   -1.3797 O   0  0  0  0  0  0  0  0  0  0  0  0
    3.5604   -0.0633    0.2407 N   0  0  0  0  0  0  0  0  0  0  0  0
   -0.1718   -0.0201    0.4889 C   0  0  0  0  0  0  0  0  0  0  0  0
    1.2495   -0.0337    0.9407 C   0  0  0  0  0  0  0  0  0  0  0  0
   -0.8405    1.1934    0.3268 C   0  0  0  0  0  0  0  0  0  0  0  0
   -0.8325   -1.2206    0.2280 C   0  0  0  0  0  0  0  0  0  0  0  0
   -2.1696    1.2065   -0.0960 C   0  0  0  0  0  0  0  0  0  0  0  0
   -2.1617   -1.2075   -0.1949 C   0  0  0  0  0  0  0  0  0  0  0  0
    2.2554    0.0165   -0.1976 C   0  0  0  0  0  0  0  0  0  0  0  0
   -2.8302    0.0061   -0.3569 C   0  0  0  0  0  0  0  0  0  0  0  0
    1.4411    0.8182    1.6057 H   0  0  0  0  0  0  0  0  0  0  0  0
    1.4441   -0.9347    1.5368 H   0  0  0  0  0  0  0  0  0  0  0  0
   -0.3363    2.1357    0.5248 H   0  0  0  0  0  0  0  0  0  0  0  0
   -0.3222   -2.1726    0.3484 H   0  0  0  0  0  0  0  0  0  0  0  0
   -2.6901    2.1513   -0.2227 H   0  0  0  0  0  0  0  0  0  0  0  0
   -2.6761   -2.1421   -0.3987 H   0  0  0  0  0  0  0  0  0  0  0  0
   -3.8650    0.0162   -0.6864 H   0  0  0  0  0  0  0  0  0  0  0  0
    3.7978   -0.1477    1.2239 H   0  0  0  0  0  0  0  0  0  0  0  0
    4.3338   -0.0394   -0.4155 H   0  0  0  0  0  0  0  0  0  0  0  0
  1  9  2  0  0  0  0
  2  9  1  0  0  0  0
  2 18  1  0  0  0  0
  2 19  1  0  0  0  0
  3  4  1  0  0  0  0
  3  5  2  0  0  0  0
  3  6  1  0  0  0  0
  4  9  1  0  0  0  0
  4 11  1  0  0  0  0
  4 12  1  0  0  0  0
  5  7  1  0  0  0  0
  5 13  1  0  0  0  0
  6  8  2  0  0  0  0
  6 14  1  0  0  0  0
  7 10  2  0  0  0  0
  7 15  1  0  0  0  0
  8 10  1  0  0  0  0
  8 16  1  0  0  0  0
 10 17  1  0  0  0  0
M  END
> <PUBCHEM_COMPOUND_CID>
7680

> <PUBCHEM_CONFORMER_RMSD>
0.4

> <PUBCHEM_CONFORMER_DIVERSEORDER>
1
7
10
2
3
9
15
8
11
14
4
5
12
13
6

> <PUBCHEM_MMFF94_PARTIAL_CHARGES>
17
1 -0.57
10 -0.15
13 0.15
14 0.15
15 0.15
16 0.15
17 0.15
18 0.37
19 0.37
2 -0.8
3 -0.14
4 0.2
5 -0.15
6 -0.15
7 -0.15
8 -0.15
9 0.57

> <PUBCHEM_EFFECTIVE_ROTOR_COUNT>
2

> <PUBCHEM_PHARMACOPHORE_FEATURES>
3
1 1 acceptor
1 2 donor
6 3 5 6 7 8 10 rings

> <PUBCHEM_HEAVY_ATOM_COUNT>
10

> <PUBCHEM_ATOM_DEF_STEREO_COUNT>
0

> <PUBCHEM_ATOM_UDEF_STEREO_COUNT>
0

> <PUBCHEM_BOND_DEF_STEREO_COUNT>
0

> <PUBCHEM_BOND_UDEF_STEREO_COUNT>
0

> <PUBCHEM_ISOTOPIC_ATOM_COUNT>
0

> <PUBCHEM_COMPONENT_COUNT>
1

> <PUBCHEM_CACTVS_TAUTO_COUNT>
2

> <PUBCHEM_CONFORMER_ID>
00001E0000000001

> <PUBCHEM_MMFF94_ENERGY>
21.7741

> <PUBCHEM_FEATURE_SELFOVERLAP>
15.223

> <PUBCHEM_SHAPE_FINGERPRINT>
11062470 55 15430035461226113243
12716758 59 18334856164165257923
12897270 3 18407759231152700350
13024252 1 17703789210972575851
14325111 11 18411703226701112240
15775835 57 18060138785924363412
16945 1 18409737261535491979
20201158 50 17603585235686138406
20653085 51 16415481540823218503
21040471 1 18265906937160372553
23402539 116 18261689141404301940
23552423 10 18199754639412263881
23559900 14 18260835938573775842
2748010 2 17978527342685556531
29004967 10 16226046686715904562
369184 2 18408886239124156169
5084963 1 17489874829646827473

> <PUBCHEM_SHAPE_MULTIPOLES>
194.94
4.56
1.22
0.9
2.51
0.01
0.12
0.02
0.64
-0.88
-0.04
0.37
-0.02
-0.05

> <PUBCHEM_SHAPE_SELFOVERLAP>
401.394

> <PUBCHEM_SHAPE_VOLUME>
111.7

> <PUBCHEM_COORDINATE_TYPE>
2
5
10

$$$$

