17395889
  -OEChem-06241222532D

 44 46  0     1  0  0  0  0  0999 V2000
    3.2320    3.7888    0.0000 S   0  0  0  0  0  0  0  0  0  0  0  0
    3.6750   -3.8378    0.0000 S   0  0  0  0  0  0  0  0  0  0  0  0
    2.0570   -3.8378    0.0000 S   0  0  0  0  0  0  0  0  0  0  0  0
    3.2320    4.7888    0.0000 O   0  0  0  0  0  0  0  0  0  0  0  0
    2.2810    4.0979    0.0000 O   0  0  0  0  0  0  0  0  0  0  0  0
    2.0000    1.2500    0.0000 O   0  0  0  0  0  0  0  0  0  0  0  0
    3.7320    1.2500    0.0000 N   0  0  0  0  0  0  0  0  0  0  0  0
    3.7320    2.2500    0.0000 C   0  0  3  0  0  0  0  0  0  0  0  0
    2.9230    2.8378    0.0000 C   0  0  0  0  0  0  0  0  0  0  0  0
    4.5411    2.8378    0.0000 C   0  0  0  0  0  0  0  0  0  0  0  0
    4.2320    3.7888    0.0000 C   0  0  0  0  0  0  0  0  0  0  0  0
    4.5981    0.7500    0.0000 C   0  0  0  0  0  0  0  0  0  0  0  0
    2.8660    0.7500    0.0000 C   0  0  0  0  0  0  0  0  0  0  0  0
    5.4641    1.2500    0.0000 C   0  0  0  0  0  0  0  0  0  0  0  0
    2.8660   -0.2500    0.0000 C   0  0  0  0  0  0  0  0  0  0  0  0
    2.0000   -0.7500    0.0000 C   0  0  0  0  0  0  0  0  0  0  0  0
    3.7320   -0.7500    0.0000 C   0  0  0  0  0  0  0  0  0  0  0  0
    2.8660   -2.2500    0.0000 C   0  0  0  0  0  0  0  0  0  0  0  0
    2.8660   -3.2500    0.0000 C   0  0  0  0  0  0  0  0  0  0  0  0
    2.0000   -1.7500    0.0000 C   0  0  0  0  0  0  0  0  0  0  0  0
    3.7320   -1.7500    0.0000 C   0  0  0  0  0  0  0  0  0  0  0  0
    3.3660   -4.7888    0.0000 C   0  0  0  0  0  0  0  0  0  0  0  0
    2.3660   -4.7888    0.0000 C   0  0  0  0  0  0  0  0  0  0  0  0
    4.2845    1.9685    0.0000 H   0  0  0  0  0  0  0  0  0  0  0  0
    2.3566    3.0900    0.0000 H   0  0  0  0  0  0  0  0  0  0  0  0
    2.6130    2.3008    0.0000 H   0  0  0  0  0  0  0  0  0  0  0  0
    4.8511    2.3008    0.0000 H   0  0  0  0  0  0  0  0  0  0  0  0
    5.1075    3.0900    0.0000 H   0  0  0  0  0  0  0  0  0  0  0  0
    4.8385    3.9178    0.0000 H   0  0  0  0  0  0  0  0  0  0  0  0
    4.1672    4.4054    0.0000 H   0  0  0  0  0  0  0  0  0  0  0  0
    4.1996    0.2751    0.0000 H   0  0  0  0  0  0  0  0  0  0  0  0
    4.9966    0.2751    0.0000 H   0  0  0  0  0  0  0  0  0  0  0  0
    5.7741    0.7131    0.0000 H   0  0  0  0  0  0  0  0  0  0  0  0
    6.0010    1.5600    0.0000 H   0  0  0  0  0  0  0  0  0  0  0  0
    5.1541    1.7869    0.0000 H   0  0  0  0  0  0  0  0  0  0  0  0
    1.4631   -0.4400    0.0000 H   0  0  0  0  0  0  0  0  0  0  0  0
    4.2690   -0.4400    0.0000 H   0  0  0  0  0  0  0  0  0  0  0  0
    3.4184   -2.9685    0.0000 H   0  0  0  0  0  0  0  0  0  0  0  0
    1.4631   -2.0600    0.0000 H   0  0  0  0  0  0  0  0  0  0  0  0
    4.2690   -2.0600    0.0000 H   0  0  0  0  0  0  0  0  0  0  0  0
    1.7596   -4.9178    0.0000 H   0  0  0  0  0  0  0  0  0  0  0  0
    2.4308   -5.4054    0.0000 H   0  0  0  0  0  0  0  0  0  0  0  0
    3.3012   -5.4054    0.0000 H   0  0  0  0  0  0  0  0  0  0  0  0
    3.9725   -4.9178    0.0000 H   0  0  0  0  0  0  0  0  0  0  0  0
  1  4  2  0  0  0  0
  1  5  2  0  0  0  0
  1  9  1  0  0  0  0
  1 11  1  0  0  0  0
  2 19  1  0  0  0  0
  2 22  1  0  0  0  0
  3 19  1  0  0  0  0
  3 23  1  0  0  0  0
  6 13  2  0  0  0  0
  7  8  1  0  0  0  0
  7 12  1  0  0  0  0
  7 13  1  0  0  0  0
  8  9  1  0  0  0  0
  8 10  1  0  0  0  0
  8 24  1  0  0  0  0
  9 25  1  0  0  0  0
  9 26  1  0  0  0  0
 10 11  1  0  0  0  0
 10 27  1  0  0  0  0
 10 28  1  0  0  0  0
 11 29  1  0  0  0  0
 11 30  1  0  0  0  0
 12 14  1  0  0  0  0
 12 31  1  0  0  0  0
 12 32  1  0  0  0  0
 13 15  1  0  0  0  0
 14 33  1  0  0  0  0
 14 34  1  0  0  0  0
 14 35  1  0  0  0  0
 15 16  2  0  0  0  0
 15 17  1  0  0  0  0
 16 20  1  0  0  0  0
 16 36  1  0  0  0  0
 17 21  2  0  0  0  0
 17 37  1  0  0  0  0
 18 19  1  0  0  0  0
 18 20  2  0  0  0  0
 18 21  1  0  0  0  0
 19 38  1  0  0  0  0
 20 39  1  0  0  0  0
 21 40  1  0  0  0  0
 22 23  1  0  0  0  0
 22 43  1  0  0  0  0
 22 44  1  0  0  0  0
 23 41  1  0  0  0  0
 23 42  1  0  0  0  0
M  END
> <PUBCHEM_COMPOUND_CID>
17395889

> <PUBCHEM_COMPOUND_CANONICALIZED>
1

> <PUBCHEM_CACTVS_COMPLEXITY>
517

> <PUBCHEM_CACTVS_HBOND_ACCEPTOR>
5

> <PUBCHEM_CACTVS_HBOND_DONOR>
0

> <PUBCHEM_CACTVS_ROTATABLE_BOND>
4

> <PUBCHEM_CACTVS_SUBSKEYS>
AAADceB6MABgAAAAAAAAAAAAAAAAASJAAAAwAAAAAAAAAAABAAAAHgQAAAAADCjF2ASyAIMAAAqIAiFSEHDCAQAkABAIiAEIBMgIIDKglRGEIQhghgCoiYcYiACOQAAAAAAAAACAAAAAAAAAAAAAAAAAAA==

> <PUBCHEM_IUPAC_OPENEYE_NAME>
N-(1,1-dioxothiolan-3-yl)-4-(1,3-dithiolan-2-yl)-N-ethyl-benzamide

> <PUBCHEM_IUPAC_CAS_NAME>
N-(1,1-dioxo-3-thiolanyl)-4-(1,3-dithiolan-2-yl)-N-ethylbenzamide

> <PUBCHEM_IUPAC_NAME>
N-(1,1-dioxothiolan-3-yl)-4-(1,3-dithiolan-2-yl)-N-ethylbenzamide

> <PUBCHEM_IUPAC_SYSTEMATIC_NAME>
N-[1,1-bis(oxidanylidene)thiolan-3-yl]-4-(1,3-dithiolan-2-yl)-N-ethyl-benzamide

> <PUBCHEM_IUPAC_TRADITIONAL_NAME>
N-(1,1-diketothiolan-3-yl)-4-(1,3-dithiolan-2-yl)-N-ethyl-benzamide

> <PUBCHEM_IUPAC_INCHI>
InChI=1S/C16H21NO3S3/c1-2-17(14-7-10-23(19,20)11-14)15(18)12-3-5-13(6-4-12)16-21-8-9-22-16/h3-6,14,16H,2,7-11H2,1H3

> <PUBCHEM_IUPAC_INCHIKEY>
PJAYGLKENUZUOI-UHFFFAOYSA-N

> <PUBCHEM_XLOGP3_AA>
2.3

> <PUBCHEM_EXACT_MASS>
371.068357

> <PUBCHEM_MOLECULAR_FORMULA>
C16H21NO3S3

> <PUBCHEM_MOLECULAR_WEIGHT>
371.53784

> <PUBCHEM_OPENEYE_CAN_SMILES>
CCN(C1CCS(=O)(=O)C1)C(=O)C2=CC=C(C=C2)C3SCCS3

> <PUBCHEM_OPENEYE_ISO_SMILES>
CCN(C1CCS(=O)(=O)C1)C(=O)C2=CC=C(C=C2)C3SCCS3

> <PUBCHEM_CACTVS_TPSA>
113

> <PUBCHEM_MONOISOTOPIC_WEIGHT>
371.068357

> <PUBCHEM_TOTAL_CHARGE>
0

> <PUBCHEM_HEAVY_ATOM_COUNT>
23

> <PUBCHEM_ATOM_DEF_STEREO_COUNT>
0

> <PUBCHEM_ATOM_UDEF_STEREO_COUNT>
1

> <PUBCHEM_BOND_DEF_STEREO_COUNT>
0

> <PUBCHEM_BOND_UDEF_STEREO_COUNT>
0

> <PUBCHEM_ISOTOPIC_ATOM_COUNT>
0

> <PUBCHEM_COMPONENT_COUNT>
1

> <PUBCHEM_CACTVS_TAUTO_COUNT>
1

> <PUBCHEM_COORDINATE_TYPE>
1
5
255

> <PUBCHEM_BONDANNOTATIONS>
15  16  8
15  17  8
16  20  8
17  21  8
18  20  8
18  21  8
8  7  3

$$$$

