11521
  -OEChem-06261205473D

 17 16  0     0  0  0  0  0  0999 V2000
   -0.1292   -0.5086   -0.0007 O   0  0  0  0  0  0  0  0  0  0  0  0
    1.1842    1.3761    0.0008 O   0  0  0  0  0  0  0  0  0  0  0  0
    3.3952   -0.1908    0.0007 O   0  0  0  0  0  0  0  0  0  0  0  0
    2.1063   -0.7385   -0.0023 N   0  0  0  0  0  0  0  0  0  0  0  0
   -2.5211   -0.5981    0.0047 C   0  0  0  0  0  0  0  0  0  0  0  0
   -1.2956    0.3027    0.0040 C   0  0  0  0  0  0  0  0  0  0  0  0
   -3.8108    0.2028   -0.0054 C   0  0  0  0  0  0  0  0  0  0  0  0
    1.0710    0.1544   -0.0018 C   0  0  0  0  0  0  0  0  0  0  0  0
   -2.4896   -1.2630   -0.8668 H   0  0  0  0  0  0  0  0  0  0  0  0
   -2.4960   -1.2530    0.8840 H   0  0  0  0  0  0  0  0  0  0  0  0
   -1.2995    0.9404   -0.8878 H   0  0  0  0  0  0  0  0  0  0  0  0
   -1.2959    0.9370    0.8983 H   0  0  0  0  0  0  0  0  0  0  0  0
   -3.8735    0.8345   -0.8972 H   0  0  0  0  0  0  0  0  0  0  0  0
   -4.6747   -0.4692   -0.0041 H   0  0  0  0  0  0  0  0  0  0  0  0
   -3.8798    0.8464    0.8774 H   0  0  0  0  0  0  0  0  0  0  0  0
    2.0220   -1.7468    0.0523 H   0  0  0  0  0  0  0  0  0  0  0  0
    3.8509   -0.8208    0.5842 H   0  0  0  0  0  0  0  0  0  0  0  0
  1  6  1  0  0  0  0
  1  8  1  0  0  0  0
  2  8  2  0  0  0  0
  3  4  1  0  0  0  0
  3 17  1  0  0  0  0
  4  8  1  0  0  0  0
  4 16  1  0  0  0  0
  5  6  1  0  0  0  0
  5  7  1  0  0  0  0
  5  9  1  0  0  0  0
  5 10  1  0  0  0  0
  6 11  1  0  0  0  0
  6 12  1  0  0  0  0
  7 13  1  0  0  0  0
  7 14  1  0  0  0  0
  7 15  1  0  0  0  0
M  END
> <PUBCHEM_COMPOUND_CID>
11521

> <PUBCHEM_CONFORMER_RMSD>
0.6

> <PUBCHEM_CONFORMER_DIVERSEORDER>
1
6
3
11
12
9
2
5
8
4
7
10

> <PUBCHEM_MMFF94_PARTIAL_CHARGES>
8
1 -0.43
16 0.37
17 0.4
2 -0.57
3 -0.44
4 -0.39
6 0.28
8 0.78

> <PUBCHEM_EFFECTIVE_ROTOR_COUNT>
4

> <PUBCHEM_PHARMACOPHORE_FEATURES>
3
1 2 acceptor
1 4 donor
1 7 hydrophobe

> <PUBCHEM_HEAVY_ATOM_COUNT>
8

> <PUBCHEM_ATOM_DEF_STEREO_COUNT>
0

> <PUBCHEM_ATOM_UDEF_STEREO_COUNT>
0

> <PUBCHEM_BOND_DEF_STEREO_COUNT>
0

> <PUBCHEM_BOND_UDEF_STEREO_COUNT>
0

> <PUBCHEM_ISOTOPIC_ATOM_COUNT>
0

> <PUBCHEM_COMPONENT_COUNT>
1

> <PUBCHEM_CACTVS_TAUTO_COUNT>
3

> <PUBCHEM_CONFORMER_ID>
00002D0100000001

> <PUBCHEM_MMFF94_ENERGY>
5.7536

> <PUBCHEM_FEATURE_SELFOVERLAP>
15.223

> <PUBCHEM_SHAPE_FINGERPRINT>
11062470 55 17240766189723999075
12932764 1 16845024428737409171
14325111 11 18410855417568878947
14390081 3 18410858729231491201
29004967 10 18410008857976768930
3248919 1 16660631930744485431
5460574 1 9295288339358945923

> <PUBCHEM_SHAPE_MULTIPOLES>
142.05
5.76
0.93
0.57
1.48
0.19
0
-0.39
0.01
-0.2
0
0.09
0
0

> <PUBCHEM_SHAPE_SELFOVERLAP>
257.086

> <PUBCHEM_SHAPE_VOLUME>
91.3

> <PUBCHEM_COORDINATE_TYPE>
2
5
10

$$$$

