14150
  -OEChem-06241222423D

 36 38  0     0  0  0  0  0  0999 V2000
    0.0973   -1.8499    0.1370 O   0  0  0  0  0  0  0  0  0  0  0  0
   -4.0648   -0.1741    0.1677 N   0  0  0  0  0  0  0  0  0  0  0  0
    1.4613   -1.7032    0.3588 N   0  0  0  0  0  0  0  0  0  0  0  0
   -4.8741    0.2801    1.2984 C   0  0  0  0  0  0  0  0  0  0  0  0
   -4.4086    0.7271   -0.9316 C   0  0  0  0  0  0  0  0  0  0  0  0
   -6.2252    0.5639    0.6588 C   0  0  0  0  0  0  0  0  0  0  0  0
   -5.9197    0.8542   -0.8076 C   0  0  0  0  0  0  0  0  0  0  0  0
   -2.6404   -0.1682    0.4662 C   0  0  0  0  0  0  0  0  0  0  0  0
   -1.8284   -0.6933   -0.7195 C   0  0  0  0  0  0  0  0  0  0  0  0
   -0.3519   -0.7119   -0.4098 C   0  0  0  0  0  0  0  0  0  0  0  0
    0.6214    0.1977   -0.5729 C   0  0  0  0  0  0  0  0  0  0  0  0
    1.7513   -0.4725   -0.0730 C   0  0  0  0  0  0  0  0  0  0  0  0
    3.0955    0.0342    0.0003 C   0  0  0  0  0  0  0  0  0  0  0  0
    3.3150    1.4010    0.1614 C   0  0  0  0  0  0  0  0  0  0  0  0
    4.1747   -0.8429   -0.0898 C   0  0  0  0  0  0  0  0  0  0  0  0
    4.6184    1.8926    0.2322 C   0  0  0  0  0  0  0  0  0  0  0  0
    5.4781   -0.3512   -0.0188 C   0  0  0  0  0  0  0  0  0  0  0  0
    5.6999    1.0165    0.1422 C   0  0  0  0  0  0  0  0  0  0  0  0
   -4.4739    1.2012    1.7414 H   0  0  0  0  0  0  0  0  0  0  0  0
   -4.9512   -0.4792    2.0828 H   0  0  0  0  0  0  0  0  0  0  0  0
   -4.1426    0.3254   -1.9141 H   0  0  0  0  0  0  0  0  0  0  0  0
   -3.9426    1.7139   -0.8141 H   0  0  0  0  0  0  0  0  0  0  0  0
   -6.7291    1.4068    1.1425 H   0  0  0  0  0  0  0  0  0  0  0  0
   -6.8834   -0.3096    0.7344 H   0  0  0  0  0  0  0  0  0  0  0  0
   -6.4269    0.1193   -1.4439 H   0  0  0  0  0  0  0  0  0  0  0  0
   -6.2647    1.8499   -1.1040 H   0  0  0  0  0  0  0  0  0  0  0  0
   -2.2942    0.8373    0.7423 H   0  0  0  0  0  0  0  0  0  0  0  0
   -2.4514   -0.8131    1.3346 H   0  0  0  0  0  0  0  0  0  0  0  0
   -1.9662   -0.0664   -1.6081 H   0  0  0  0  0  0  0  0  0  0  0  0
   -2.1542   -1.7066   -0.9866 H   0  0  0  0  0  0  0  0  0  0  0  0
    0.5381    1.1901   -0.9912 H   0  0  0  0  0  0  0  0  0  0  0  0
    2.4929    2.1073    0.2448 H   0  0  0  0  0  0  0  0  0  0  0  0
    4.0340   -1.9127   -0.2240 H   0  0  0  0  0  0  0  0  0  0  0  0
    4.7915    2.9572    0.3599 H   0  0  0  0  0  0  0  0  0  0  0  0
    6.3207   -1.0328   -0.0908 H   0  0  0  0  0  0  0  0  0  0  0  0
    6.7149    1.3991    0.1975 H   0  0  0  0  0  0  0  0  0  0  0  0
  1  3  1  0  0  0  0
  1 10  1  0  0  0  0
  2  4  1  0  0  0  0
  2  5  1  0  0  0  0
  2  8  1  0  0  0  0
  3 12  2  0  0  0  0
  4  6  1  0  0  0  0
  4 19  1  0  0  0  0
  4 20  1  0  0  0  0
  5  7  1  0  0  0  0
  5 21  1  0  0  0  0
  5 22  1  0  0  0  0
  6  7  1  0  0  0  0
  6 23  1  0  0  0  0
  6 24  1  0  0  0  0
  7 25  1  0  0  0  0
  7 26  1  0  0  0  0
  8  9  1  0  0  0  0
  8 27  1  0  0  0  0
  8 28  1  0  0  0  0
  9 10  1  0  0  0  0
  9 29  1  0  0  0  0
  9 30  1  0  0  0  0
 10 11  2  0  0  0  0
 11 12  1  0  0  0  0
 11 31  1  0  0  0  0
 12 13  1  0  0  0  0
 13 14  2  0  0  0  0
 13 15  1  0  0  0  0
 14 16  1  0  0  0  0
 14 32  1  0  0  0  0
 15 17  2  0  0  0  0
 15 33  1  0  0  0  0
 16 18  2  0  0  0  0
 16 34  1  0  0  0  0
 17 18  1  0  0  0  0
 17 35  1  0  0  0  0
 18 36  1  0  0  0  0
M  END
> <PUBCHEM_COMPOUND_CID>
14150

> <PUBCHEM_CONFORMER_RMSD>
0.6

> <PUBCHEM_CONFORMER_DIVERSEORDER>
1
21
44
56
39
20
37
57
15
31
52
24
17
19
5
18
54
40
23
47
6
9
8
25
49
11
13
45
16
51
4
14
3
53
12
33
55
42
34
2
38
28
46
50
32
27
36
30
41
10
7
22
29
43
48
35
26

> <PUBCHEM_MMFF94_PARTIAL_CHARGES>
22
1 -0.02
10 -0.04
11 -0.15
12 0.23
13 0.05
14 -0.15
15 -0.15
16 -0.15
17 -0.15
18 -0.15
2 -0.81
3 -0.41
31 0.15
32 0.15
33 0.15
34 0.15
35 0.15
36 0.15
4 0.27
5 0.27
8 0.27
9 0.18

> <PUBCHEM_EFFECTIVE_ROTOR_COUNT>
5

> <PUBCHEM_PHARMACOPHORE_FEATURES>
5
1 2 cation
1 3 acceptor
5 1 3 10 11 12 rings
5 2 4 5 6 7 rings
6 13 14 15 16 17 18 rings

> <PUBCHEM_HEAVY_ATOM_COUNT>
18

> <PUBCHEM_ATOM_DEF_STEREO_COUNT>
0

> <PUBCHEM_ATOM_UDEF_STEREO_COUNT>
0

> <PUBCHEM_BOND_DEF_STEREO_COUNT>
0

> <PUBCHEM_BOND_UDEF_STEREO_COUNT>
0

> <PUBCHEM_ISOTOPIC_ATOM_COUNT>
0

> <PUBCHEM_COMPONENT_COUNT>
1

> <PUBCHEM_CACTVS_TAUTO_COUNT>
1

> <PUBCHEM_CONFORMER_ID>
0000374600000001

> <PUBCHEM_MMFF94_ENERGY>
29.1833

> <PUBCHEM_FEATURE_SELFOVERLAP>
25.371

> <PUBCHEM_SHAPE_FINGERPRINT>
10 15 17846778472944822680
100836 57 18410571764917213756
10354089 29 18131350804376335440
106641 1 16343696587288787588
11045977 3 18059569165902250659
11089746 13 18113341903013581192
12236239 1 17894914040121403807
12507557 5 18131346406699349453
12516196 113 11671779360187755735
12596602 18 15769773537454895836
12670543 26 5689603766352215059
12730499 353 18341325665193550970
13167372 99 18187079610948598712
13288520 33 9439405731523229395
13533116 47 17703234030504529242
13551218 46 12535360003463708577
13631057 29 18189343364738106135
13668630 136 9727632813145284185
13685833 64 8862939494414771805
13785724 45 17686899823391938158
13955234 65 18341334508520943794
14251718 22 4823210619640777533
14251764 75 17269738141276956524
14341114 176 18131347526978769436
14464042 87 17749383780364855632
15048467 5 18261111851056212976
15183329 4 16298380275394568852
15188451 53 15697427829390755531
15348495 7 17703784765280829481
15475509 35 16128108861757550498
16079462 125 17775014517895425005
17834072 33 18040722437343938159
17834072 8 18187358836079409700
17870717 6 5256405007525626245
1813 80 10951773026919365939
18222031 100 9583519793806054990
19489759 90 16845573124063835025
19784866 140 7637408410546140575
19784866 170 17917714616957153015
19784866 240 9367349262355204955
20281389 69 18411140233830049673
21033648 29 18200329769946353413
21150785 3 16298674897382288669
21236236 1 18336829676549078327
212847 35 18186520990886363272
21637258 2 11455895719630563617
22224240 67 17988924457797870475
23198884 109 16443062798912418397
23402539 116 16443067213917285009
23402655 69 17967817119862035334
23536379 177 16225763042717431942
2767999 5 18186805772502731521
2838139 119 17967253096056410097
2916195 48 18273498970592831937
293599 30 18409449167829672238
29717793 49 16805315605271619476
300161 21 17894918399734748750
3004659 81 15213287677944919532
3014965 18 18340208608766750230
335352 9 18408603665680569758
34797466 226 14345798197338321993
3545911 37 18342736330100764939
4325135 7 18260269612865828223
4340502 62 16630529540138414378
465052 167 11312058759879138392
5104073 3 18198634242007452586
542803 24 17675924309327956077
54446538 1 18186800300645928665
8272917 22 18113894988208222654

> <PUBCHEM_SHAPE_MULTIPOLES>
354.6
16.09
1.47
0.9
9.14
0.03
-0.03
6.53
-1.28
-1.49
-0.06
1.14
0.08
0.25

> <PUBCHEM_SHAPE_SELFOVERLAP>
757.792

> <PUBCHEM_SHAPE_VOLUME>
199.9

> <PUBCHEM_COORDINATE_TYPE>
2
5
10

$$$$

