586102
  -OEChem-06241222452D

 39 40  0     1  0  0  0  0  0999 V2000
    6.3465   -2.4192    0.0000 O   0  0  0  0  0  0  0  0  0  0  0  0
    6.3465    1.6500    0.0000 O   0  0  0  0  0  0  0  0  0  0  0  0
    2.0000    2.1154    0.0000 O   0  0  0  0  0  0  0  0  0  0  0  0
    3.7320   -0.8846    0.0000 C   0  0  3  0  0  0  0  0  0  0  0  0
    3.7320    0.1154    0.0000 C   0  0  3  0  0  0  0  0  0  0  0  0
    4.5981   -1.3846    0.0000 C   0  0  0  0  0  0  0  0  0  0  0  0
    4.5981    0.6154    0.0000 C   0  0  0  0  0  0  0  0  0  0  0  0
    5.4641   -0.8846    0.0000 C   0  0  0  0  0  0  0  0  0  0  0  0
    5.4641    0.1154    0.0000 C   0  0  0  0  0  0  0  0  0  0  0  0
    3.2320   -1.7506    0.0000 C   0  0  0  0  0  0  0  0  0  0  0  0
    2.8660    0.6154    0.0000 C   0  0  0  0  0  0  0  0  0  0  0  0
    2.7320   -0.8846    0.0000 C   0  0  0  0  0  0  0  0  0  0  0  0
    6.3580   -1.4193    0.0000 C   0  0  0  0  0  0  0  0  0  0  0  0
    6.3580    0.6501    0.0000 C   0  0  0  0  0  0  0  0  0  0  0  0
    2.8660    1.6154    0.0000 C   0  0  0  0  0  0  0  0  0  0  0  0
    2.0000    0.1154    0.0000 C   0  0  0  0  0  0  0  0  0  0  0  0
    7.2641   -0.9054    0.0000 C   0  0  0  0  0  0  0  0  0  0  0  0
    7.2641    0.1362    0.0000 C   0  0  0  0  0  0  0  0  0  0  0  0
    2.2320   -1.7506    0.0000 C   0  0  0  0  0  0  0  0  0  0  0  0
    3.7320    0.7354    0.0000 H   0  0  0  0  0  0  0  0  0  0  0  0
    4.1996   -1.8596    0.0000 H   0  0  0  0  0  0  0  0  0  0  0  0
    4.9966   -1.8596    0.0000 H   0  0  0  0  0  0  0  0  0  0  0  0
    4.9966    1.0903    0.0000 H   0  0  0  0  0  0  0  0  0  0  0  0
    4.1996    1.0903    0.0000 H   0  0  0  0  0  0  0  0  0  0  0  0
    2.6951   -1.4406    0.0000 H   0  0  0  0  0  0  0  0  0  0  0  0
    2.9220   -2.2876    0.0000 H   0  0  0  0  0  0  0  0  0  0  0  0
    3.7690   -2.0606    0.0000 H   0  0  0  0  0  0  0  0  0  0  0  0
    2.4220   -0.3477    0.0000 H   0  0  0  0  0  0  0  0  0  0  0  0
    3.4766    1.5077    0.0000 H   0  0  0  0  0  0  0  0  0  0  0  0
    3.0781    2.1980    0.0000 H   0  0  0  0  0  0  0  0  0  0  0  0
    1.4631    0.4254    0.0000 H   0  0  0  0  0  0  0  0  0  0  0  0
    2.0000   -0.5046    0.0000 H   0  0  0  0  0  0  0  0  0  0  0  0
    7.7998   -1.2175    0.0000 H   0  0  0  0  0  0  0  0  0  0  0  0
    7.7998    0.4483    0.0000 H   0  0  0  0  0  0  0  0  0  0  0  0
    1.6120   -1.7506    0.0000 H   0  0  0  0  0  0  0  0  0  0  0  0
    2.5420   -2.2876    0.0000 H   0  0  0  0  0  0  0  0  0  0  0  0
    6.8798   -2.7354    0.0000 H   0  0  0  0  0  0  0  0  0  0  0  0
    6.8798    1.9662    0.0000 H   0  0  0  0  0  0  0  0  0  0  0  0
    2.0000    2.7354    0.0000 H   0  0  0  0  0  0  0  0  0  0  0  0
  1 13  1  0  0  0  0
  1 37  1  0  0  0  0
  2 14  1  0  0  0  0
  2 38  1  0  0  0  0
  3 15  1  0  0  0  0
  3 39  1  0  0  0  0
  4  5  1  0  0  0  0
  4  6  1  0  0  0  0
  4 10  1  0  0  0  0
  4 12  1  0  0  0  0
  5  7  1  0  0  0  0
  5 11  1  0  0  0  0
  5 20  1  0  0  0  0
  6  8  1  0  0  0  0
  6 21  1  0  0  0  0
  6 22  1  0  0  0  0
  7  9  1  0  0  0  0
  7 23  1  0  0  0  0
  7 24  1  0  0  0  0
  8  9  1  0  0  0  0
  8 13  2  0  0  0  0
  9 14  2  0  0  0  0
 10 25  1  0  0  0  0
 10 26  1  0  0  0  0
 10 27  1  0  0  0  0
 11 15  1  0  0  0  0
 11 16  2  0  0  0  0
 12 19  2  0  0  0  0
 12 28  1  0  0  0  0
 13 17  1  0  0  0  0
 14 18  1  0  0  0  0
 15 29  1  0  0  0  0
 15 30  1  0  0  0  0
 16 31  1  0  0  0  0
 16 32  1  0  0  0  0
 17 18  2  0  0  0  0
 17 33  1  0  0  0  0
 18 34  1  0  0  0  0
 19 35  1  0  0  0  0
 19 36  1  0  0  0  0
M  END
> <PUBCHEM_COMPOUND_CID>
586102

> <PUBCHEM_COMPOUND_CANONICALIZED>
1

> <PUBCHEM_CACTVS_COMPLEXITY>
365

> <PUBCHEM_CACTVS_HBOND_ACCEPTOR>
3

> <PUBCHEM_CACTVS_HBOND_DONOR>
3

> <PUBCHEM_CACTVS_ROTATABLE_BOND>
3

> <PUBCHEM_CACTVS_SUBSKEYS>
AAADceB4MAAAAAAAAAAAAAAAAAAAAAAAAAAwYAAAAAAAAADBAAAAGgAACAAADwSgmAIyBoAAAgCAAiBCAAACAAAgIAAIiAAGCIgINiKCERKAcAAkwBEImAfAwPAPgQABAAAYAACCAAYAADAAAAAAAAAAAA==

> <PUBCHEM_IUPAC_OPENEYE_NAME>
3-[1-(hydroxymethyl)vinyl]-2-methyl-2-vinyl-tetralin-5,8-diol

> <PUBCHEM_IUPAC_CAS_NAME>
7-ethenyl-6-(3-hydroxyprop-1-en-2-yl)-7-methyl-6,8-dihydro-5H-naphthalene-1,4-diol

> <PUBCHEM_IUPAC_NAME>
7-ethenyl-6-(3-hydroxyprop-1-en-2-yl)-7-methyl-6,8-dihydro-5H-naphthalene-1,4-diol

> <PUBCHEM_IUPAC_SYSTEMATIC_NAME>
7-ethenyl-7-methyl-6-(3-oxidanylprop-1-en-2-yl)-6,8-dihydro-5H-naphthalene-1,4-diol

> <PUBCHEM_IUPAC_TRADITIONAL_NAME>
2-methyl-3-(1-methylolvinyl)-2-vinyl-tetralin-5,8-diol

> <PUBCHEM_IUPAC_INCHI>
InChI=1S/C16H20O3/c1-4-16(3)8-12-11(7-13(16)10(2)9-17)14(18)5-6-15(12)19/h4-6,13,17-19H,1-2,7-9H2,3H3

> <PUBCHEM_IUPAC_INCHIKEY>
OPXFMBDMXQKOBS-UHFFFAOYSA-N

> <PUBCHEM_XLOGP3_AA>
3.2

> <PUBCHEM_EXACT_MASS>
260.141245

> <PUBCHEM_MOLECULAR_FORMULA>
C16H20O3

> <PUBCHEM_MOLECULAR_WEIGHT>
260.3282

> <PUBCHEM_OPENEYE_CAN_SMILES>
CC1(CC2=C(C=CC(=C2CC1C(=C)CO)O)O)C=C

> <PUBCHEM_OPENEYE_ISO_SMILES>
CC1(CC2=C(C=CC(=C2CC1C(=C)CO)O)O)C=C

> <PUBCHEM_CACTVS_TPSA>
60.7

> <PUBCHEM_MONOISOTOPIC_WEIGHT>
260.141245

> <PUBCHEM_TOTAL_CHARGE>
0

> <PUBCHEM_HEAVY_ATOM_COUNT>
19

> <PUBCHEM_ATOM_DEF_STEREO_COUNT>
0

> <PUBCHEM_ATOM_UDEF_STEREO_COUNT>
2

> <PUBCHEM_BOND_DEF_STEREO_COUNT>
0

> <PUBCHEM_BOND_UDEF_STEREO_COUNT>
0

> <PUBCHEM_ISOTOPIC_ATOM_COUNT>
0

> <PUBCHEM_COMPONENT_COUNT>
1

> <PUBCHEM_CACTVS_TAUTO_COUNT>
69

> <PUBCHEM_COORDINATE_TYPE>
1
5
255

> <PUBCHEM_BONDANNOTATIONS>
13  17  8
14  18  8
17  18  8
4  10  3
5  11  3
8  13  8
8  9  8
9  14  8

$$$$

