6965
  -OEChem-06261201383D

 64 65  0     0  0  0  0  0  0999 V2000
   -6.3654    0.3834    0.9974 N   0  0  0  0  0  0  0  0  0  0  0  0
   -7.1402   -0.8109    0.6815 C   0  0  0  0  0  0  0  0  0  0  0  0
    2.5016    0.6954    0.0933 C   0  0  0  0  0  0  0  0  0  0  0  0
    3.9094    0.8601   -0.4924 C   0  0  0  0  0  0  0  0  0  0  0  0
    1.3532    1.2176   -0.7761 C   0  0  0  0  0  0  0  0  0  0  0  0
    5.0527    0.2778    0.3455 C   0  0  0  0  0  0  0  0  0  0  0  0
   -0.0332    0.9728   -0.1715 C   0  0  0  0  0  0  0  0  0  0  0  0
    6.4215    0.3861   -0.3307 C   0  0  0  0  0  0  0  0  0  0  0  0
   -1.1659    1.5164   -1.0518 C   0  0  0  0  0  0  0  0  0  0  0  0
   -4.4744   -0.2723   -0.3973 C   0  0  0  0  0  0  0  0  0  0  0  0
   -5.1025    0.6313    0.4831 C   0  0  0  0  0  0  0  0  0  0  0  0
    7.5450   -0.2694    0.4810 C   0  0  0  0  0  0  0  0  0  0  0  0
   -6.4096   -1.7341   -0.2658 C   0  0  0  0  0  0  0  0  0  0  0  0
   -2.5424    1.2099   -0.5136 C   0  0  0  0  0  0  0  0  0  0  0  0
   -5.1860   -1.5125   -0.7767 C   0  0  0  0  0  0  0  0  0  0  0  0
    8.9174   -0.1424   -0.1882 C   0  0  0  0  0  0  0  0  0  0  0  0
   -3.1925    0.0327   -0.8870 C   0  0  0  0  0  0  0  0  0  0  0  0
   -7.4254   -1.5518    1.9949 C   0  0  0  0  0  0  0  0  0  0  0  0
   -8.4600   -0.3629    0.0390 C   0  0  0  0  0  0  0  0  0  0  0  0
   -4.4327    1.8116    0.8480 C   0  0  0  0  0  0  0  0  0  0  0  0
   10.0371   -0.8469    0.5832 C   0  0  0  0  0  0  0  0  0  0  0  0
   -3.1621    2.0997    0.3541 C   0  0  0  0  0  0  0  0  0  0  0  0
   -4.5456   -2.4961   -1.7125 C   0  0  0  0  0  0  0  0  0  0  0  0
   11.4103   -0.6950   -0.0720 C   0  0  0  0  0  0  0  0  0  0  0  0
   12.4898   -1.4006    0.7346 C   0  0  0  0  0  0  0  0  0  0  0  0
    2.3323   -0.3707    0.2910 H   0  0  0  0  0  0  0  0  0  0  0  0
    2.4664    1.1992    1.0674 H   0  0  0  0  0  0  0  0  0  0  0  0
    3.9265    0.3875   -1.4828 H   0  0  0  0  0  0  0  0  0  0  0  0
    4.0992    1.9281   -0.6572 H   0  0  0  0  0  0  0  0  0  0  0  0
    1.4924    2.2930   -0.9411 H   0  0  0  0  0  0  0  0  0  0  0  0
    1.4048    0.7371   -1.7608 H   0  0  0  0  0  0  0  0  0  0  0  0
    4.8379   -0.7782    0.5504 H   0  0  0  0  0  0  0  0  0  0  0  0
    5.0834    0.7880    1.3159 H   0  0  0  0  0  0  0  0  0  0  0  0
   -0.0854    1.4379    0.8210 H   0  0  0  0  0  0  0  0  0  0  0  0
   -0.1718   -0.1050   -0.0183 H   0  0  0  0  0  0  0  0  0  0  0  0
    6.6599    1.4443   -0.4930 H   0  0  0  0  0  0  0  0  0  0  0  0
    6.3744   -0.0846   -1.3204 H   0  0  0  0  0  0  0  0  0  0  0  0
   -1.0547    2.6024   -1.1679 H   0  0  0  0  0  0  0  0  0  0  0  0
   -1.0778    1.1031   -2.0651 H   0  0  0  0  0  0  0  0  0  0  0  0
    7.5863    0.1866    1.4777 H   0  0  0  0  0  0  0  0  0  0  0  0
    7.3107   -1.3312    0.6259 H   0  0  0  0  0  0  0  0  0  0  0  0
   -6.7702    1.0677    1.6271 H   0  0  0  0  0  0  0  0  0  0  0  0
   -6.9356   -2.6465   -0.5433 H   0  0  0  0  0  0  0  0  0  0  0  0
    9.1662    0.9204   -0.2967 H   0  0  0  0  0  0  0  0  0  0  0  0
    8.8646   -0.5603   -1.2012 H   0  0  0  0  0  0  0  0  0  0  0  0
   -2.6822   -0.6466   -1.5659 H   0  0  0  0  0  0  0  0  0  0  0  0
   -6.4958   -1.8661    2.4851 H   0  0  0  0  0  0  0  0  0  0  0  0
   -8.0351   -2.4474    1.8281 H   0  0  0  0  0  0  0  0  0  0  0  0
   -7.9627   -0.9100    2.7034 H   0  0  0  0  0  0  0  0  0  0  0  0
   -9.1051   -1.2179   -0.1945 H   0  0  0  0  0  0  0  0  0  0  0  0
   -8.2827    0.1873   -0.8932 H   0  0  0  0  0  0  0  0  0  0  0  0
   -9.0192    0.3042    0.7059 H   0  0  0  0  0  0  0  0  0  0  0  0
   -4.9038    2.5193    1.5271 H   0  0  0  0  0  0  0  0  0  0  0  0
    9.7940   -1.9129    0.6740 H   0  0  0  0  0  0  0  0  0  0  0  0
   10.0766   -0.4434    1.6027 H   0  0  0  0  0  0  0  0  0  0  0  0
   -2.6683    3.0193    0.6558 H   0  0  0  0  0  0  0  0  0  0  0  0
   -3.6083   -2.8778   -1.2940 H   0  0  0  0  0  0  0  0  0  0  0  0
   -4.3402   -2.0325   -2.6832 H   0  0  0  0  0  0  0  0  0  0  0  0
   -5.1902   -3.3621   -1.8998 H   0  0  0  0  0  0  0  0  0  0  0  0
   11.6632    0.3676   -0.1621 H   0  0  0  0  0  0  0  0  0  0  0  0
   11.3857   -1.1107   -1.0858 H   0  0  0  0  0  0  0  0  0  0  0  0
   12.5598   -0.9847    1.7448 H   0  0  0  0  0  0  0  0  0  0  0  0
   12.2808   -2.4719    0.8171 H   0  0  0  0  0  0  0  0  0  0  0  0
   13.4637   -1.2809    0.2498 H   0  0  0  0  0  0  0  0  0  0  0  0
  1  2  1  0  0  0  0
  1 11  1  0  0  0  0
  1 42  1  0  0  0  0
  2 13  1  0  0  0  0
  2 18  1  0  0  0  0
  2 19  1  0  0  0  0
  3  4  1  0  0  0  0
  3  5  1  0  0  0  0
  3 26  1  0  0  0  0
  3 27  1  0  0  0  0
  4  6  1  0  0  0  0
  4 28  1  0  0  0  0
  4 29  1  0  0  0  0
  5  7  1  0  0  0  0
  5 30  1  0  0  0  0
  5 31  1  0  0  0  0
  6  8  1  0  0  0  0
  6 32  1  0  0  0  0
  6 33  1  0  0  0  0
  7  9  1  0  0  0  0
  7 34  1  0  0  0  0
  7 35  1  0  0  0  0
  8 12  1  0  0  0  0
  8 36  1  0  0  0  0
  8 37  1  0  0  0  0
  9 14  1  0  0  0  0
  9 38  1  0  0  0  0
  9 39  1  0  0  0  0
 10 11  2  0  0  0  0
 10 15  1  0  0  0  0
 10 17  1  0  0  0  0
 11 20  1  0  0  0  0
 12 16  1  0  0  0  0
 12 40  1  0  0  0  0
 12 41  1  0  0  0  0
 13 15  2  0  0  0  0
 13 43  1  0  0  0  0
 14 17  2  0  0  0  0
 14 22  1  0  0  0  0
 15 23  1  0  0  0  0
 16 21  1  0  0  0  0
 16 44  1  0  0  0  0
 16 45  1  0  0  0  0
 17 46  1  0  0  0  0
 18 47  1  0  0  0  0
 18 48  1  0  0  0  0
 18 49  1  0  0  0  0
 19 50  1  0  0  0  0
 19 51  1  0  0  0  0
 19 52  1  0  0  0  0
 20 22  2  0  0  0  0
 20 53  1  0  0  0  0
 21 24  1  0  0  0  0
 21 54  1  0  0  0  0
 21 55  1  0  0  0  0
 22 56  1  0  0  0  0
 23 57  1  0  0  0  0
 23 58  1  0  0  0  0
 23 59  1  0  0  0  0
 24 25  1  0  0  0  0
 24 60  1  0  0  0  0
 24 61  1  0  0  0  0
 25 62  1  0  0  0  0
 25 63  1  0  0  0  0
 25 64  1  0  0  0  0
M  END
> <PUBCHEM_COMPOUND_CID>
6965

> <PUBCHEM_CONFORMER_RMSD>
1.2

> <PUBCHEM_CONFORMER_DIVERSEORDER>
2
150
10
168
152
138
95
29
21
15
117
25
132
178
139
156
22
160
75
43
77
46
182
154
185
26
151
66
162
97
76
58
103
36
90
13
68
169
134
70
17
176
137
122
101
141
59
92
146
86
4
78
79
133
69
148
60
32
147
104
39
47
110
153
11
72
61
179
181
28
102
159
161
14
40
73
183
112
53
100
16
172
55
7
120
96
38
3
175
67
177
118
45
136
113
19
8
174
56
135
12
91
124
82
74
64
24
6
142
127
65
173
9
44
170
63
35
62
125
33
42
80
87
186
50
105
165
94
34
5
123
126
49
143
114
99
85
106
89
107
180
128
189
158
37
52
57
83
20
18
54
31
81
130
27
145
157
164
131
30
111
109
121
119
184
155
71
144
129
140
187
116
93
167
163
108
115
188
23
171
41
88
51
149
166
84
48
98
1

> <PUBCHEM_MMFF94_PARTIAL_CHARGES>
17
1 -0.87
10 0.03
11 0.1
13 -0.29
14 -0.14
15 -0.17
17 -0.15
2 0.51
20 -0.15
22 -0.15
23 0.14
42 0.4
43 0.15
46 0.15
53 0.15
56 0.15
9 0.14

> <PUBCHEM_EFFECTIVE_ROTOR_COUNT>
11.4

> <PUBCHEM_PHARMACOPHORE_FEATURES>
6
1 1 cation
1 1 donor
1 25 hydrophobe
3 2 18 19 hydrophobe
6 1 2 10 11 13 15 rings
6 10 11 14 17 20 22 rings

> <PUBCHEM_HEAVY_ATOM_COUNT>
25

> <PUBCHEM_ATOM_DEF_STEREO_COUNT>
0

> <PUBCHEM_ATOM_UDEF_STEREO_COUNT>
0

> <PUBCHEM_BOND_DEF_STEREO_COUNT>
0

> <PUBCHEM_BOND_UDEF_STEREO_COUNT>
0

> <PUBCHEM_ISOTOPIC_ATOM_COUNT>
0

> <PUBCHEM_COMPONENT_COUNT>
1

> <PUBCHEM_CACTVS_TAUTO_COUNT>
1

> <PUBCHEM_CONFORMER_ID>
00001B3500000002

> <PUBCHEM_MMFF94_ENERGY>
43.8997

> <PUBCHEM_FEATURE_SELFOVERLAP>
30.47

> <PUBCHEM_SHAPE_FINGERPRINT>
10 15 16805604737552877100
10299344 5 18411135823315231844
10533779 47 16733262448689509950
12498461 61 18113904840135407255
12559415 141 18188198889520065718
13165054 27 6699266577627191547
13383668 90 15841555129565263883
13553643 46 13912334495528887834
13668630 136 17060057008851110313
13974486 27 17393591906764733734
14202775 3 18201997773196048818
14251764 46 18343584053956066412
14344974 52 11239705371511931052
150020 25 13614517451386669284
15247644 1 18060418024152119570
15461852 350 13614517441831409505
15510794 2 17676203602914922668
155225 1 7637404025358261322
15716309 27 18411418380312588141
1754911 235 10879989165160423330
1818759 1 18202001028263670338
21026386 114 16917355866339781298
21095086 128 18131070451114063384
21150785 3 14836408021072539836
21362267 2 11743538958061667406
21362267 20 18334018285911264390
21362267 313 6988327094047701452
21792961 116 18202004314288010101
21895431 317 17774730879173582610
232437 2 18412825803558827562
23528940 14 18409450262920544234
246663 6 18342455941908983844
3178227 256 16805324388870045212
335507 130 18335419067665128812
44389302 135 18187367658449560318
54039377 194 17917710180008126847
636775 8 17275380993151445602
67123 10 18412263940126753980
9953998 17 17385724682017764421

> <PUBCHEM_SHAPE_MULTIPOLES>
509.51
41.17
1.98
1.2
137.61
0.29
-0.1
24.44
-11.56
-3.08
0.24
-2.05
0.44
-1.27

> <PUBCHEM_SHAPE_SELFOVERLAP>
1014.907

> <PUBCHEM_SHAPE_VOLUME>
302.6

> <PUBCHEM_COORDINATE_TYPE>
2
5
10

$$$$

