11598
  -OEChem-06261205523D

 16 15  0     0  0  0  0  0  0999 V2000
   -0.7574   -1.0808    0.1585 C   0  0  0  0  0  0  0  0  0  0  0  0
    0.7434   -1.0781   -0.1506 C   0  0  0  0  0  0  0  0  0  0  0  0
   -1.4767    0.0867   -0.4539 C   0  0  0  0  0  0  0  0  0  0  0  0
    1.4564    0.0993    0.4504 C   0  0  0  0  0  0  0  0  0  0  0  0
   -2.1520    1.0021    0.2500 C   0  0  0  0  0  0  0  0  0  0  0  0
    2.1864    0.9709   -0.2544 C   0  0  0  0  0  0  0  0  0  0  0  0
   -1.1984   -2.0018   -0.2418 H   0  0  0  0  0  0  0  0  0  0  0  0
   -0.9120   -1.1079    1.2447 H   0  0  0  0  0  0  0  0  0  0  0  0
    0.8985   -1.1165   -1.2363 H   0  0  0  0  0  0  0  0  0  0  0  0
    1.1878   -1.9922    0.2615 H   0  0  0  0  0  0  0  0  0  0  0  0
   -1.4500    0.1773   -1.5367 H   0  0  0  0  0  0  0  0  0  0  0  0
    1.3832    0.2319    1.5267 H   0  0  0  0  0  0  0  0  0  0  0  0
   -2.6557    1.8199   -0.2533 H   0  0  0  0  0  0  0  0  0  0  0  0
   -2.2135    0.9542    1.3316 H   0  0  0  0  0  0  0  0  0  0  0  0
    2.6848    1.7968    0.2411 H   0  0  0  0  0  0  0  0  0  0  0  0
    2.2989    0.8788   -1.3289 H   0  0  0  0  0  0  0  0  0  0  0  0
  1  2  1  0  0  0  0
  1  3  1  0  0  0  0
  1  7  1  0  0  0  0
  1  8  1  0  0  0  0
  2  4  1  0  0  0  0
  2  9  1  0  0  0  0
  2 10  1  0  0  0  0
  3  5  2  0  0  0  0
  3 11  1  0  0  0  0
  4  6  2  0  0  0  0
  4 12  1  0  0  0  0
  5 13  1  0  0  0  0
  5 14  1  0  0  0  0
  6 15  1  0  0  0  0
  6 16  1  0  0  0  0
M  END
> <PUBCHEM_COMPOUND_CID>
11598

> <PUBCHEM_CONFORMER_RMSD>
0.4

> <PUBCHEM_CONFORMER_DIVERSEORDER>
1
3
21
2
19
16
15
20
5
13
14
8
12
9
6
11
17
10
18
7
4

> <PUBCHEM_MMFF94_PARTIAL_CHARGES>
12
1 0.14
11 0.15
12 0.15
13 0.15
14 0.15
15 0.15
16 0.15
2 0.14
3 -0.29
4 -0.29
5 -0.3
6 -0.3

> <PUBCHEM_EFFECTIVE_ROTOR_COUNT>
3

> <PUBCHEM_PHARMACOPHORE_FEATURES>
3
1 5 hydrophobe
1 6 hydrophobe
4 1 2 3 4 hydrophobe

> <PUBCHEM_HEAVY_ATOM_COUNT>
6

> <PUBCHEM_ATOM_DEF_STEREO_COUNT>
0

> <PUBCHEM_ATOM_UDEF_STEREO_COUNT>
0

> <PUBCHEM_BOND_DEF_STEREO_COUNT>
0

> <PUBCHEM_BOND_UDEF_STEREO_COUNT>
0

> <PUBCHEM_ISOTOPIC_ATOM_COUNT>
0

> <PUBCHEM_COMPONENT_COUNT>
1

> <PUBCHEM_CACTVS_TAUTO_COUNT>
1

> <PUBCHEM_CONFORMER_ID>
00002D4E00000001

> <PUBCHEM_MMFF94_ENERGY>
0.7765

> <PUBCHEM_FEATURE_SELFOVERLAP>
15.242

> <PUBCHEM_SHAPE_FINGERPRINT>
14390081 3 18260834773661887272
16714656 1 18120087278064317102
20096714 4 18410295843101114643
21040471 1 18408609157983482722
23552449 1 17760653559837747074
24536 1 18338811064524903363
29004967 10 8141784110864264031

> <PUBCHEM_SHAPE_MULTIPOLES>
123.48
3.09
1.33
0.71
0.06
0.1
0
-1.41
0.01
-0.02
0
0
-0.02
-0.12

> <PUBCHEM_SHAPE_SELFOVERLAP>
216.148

> <PUBCHEM_SHAPE_VOLUME>
81.5

> <PUBCHEM_COORDINATE_TYPE>
2
5
10

$$$$

