7847005
  -OEChem-06241222483D

 52 54  0     1  0  0  0  0  0999 V2000
    4.4622    0.4164    0.5644 S   0  0  0  0  0  0  0  0  0  0  0  0
    1.1283   -3.2236    0.4744 O   0  0  0  0  0  0  0  0  0  0  0  0
   -0.1408   -0.8940    1.1418 O   0  0  0  0  0  0  0  0  0  0  0  0
    0.9891   -2.0651   -1.5157 O   0  0  0  0  0  0  0  0  0  0  0  0
   -2.0498   -1.6636    0.0123 N   0  0  0  0  0  0  0  0  0  0  0  0
    2.4736    0.5372   -1.0737 N   0  0  0  0  0  0  0  0  0  0  0  0
   -2.8249   -0.4890   -0.1395 C   0  0  0  0  0  0  0  0  0  0  0  0
   -2.6707    0.2869   -1.2786 C   0  0  0  0  0  0  0  0  0  0  0  0
   -3.7252   -0.1342    0.8539 C   0  0  0  0  0  0  0  0  0  0  0  0
   -0.2995   -3.2254    0.5752 C   0  0  2  0  0  0  0  0  0  0  0  0
   -4.3438    1.8126   -0.4360 C   0  0  0  0  0  0  0  0  0  0  0  0
   -3.4346    1.4444   -1.4277 C   0  0  0  0  0  0  0  0  0  0  0  0
   -4.4892    1.0233    0.7048 C   0  0  0  0  0  0  0  0  0  0  0  0
    3.8367   -1.5102   -1.2997 C   0  0  0  0  0  0  0  0  0  0  0  0
    3.1480   -2.6873   -0.5842 C   0  0  0  0  0  0  0  0  0  0  0  0
   -0.8015   -1.7842    0.6143 C   0  0  0  0  0  0  0  0  0  0  0  0
    3.4916   -0.2028   -0.7006 C   0  0  0  0  0  0  0  0  0  0  0  0
   -1.7055   -0.0820   -2.3585 C   0  0  0  0  0  0  0  0  0  0  0  0
   -3.9034   -0.9594    2.0871 C   0  0  0  0  0  0  0  0  0  0  0  0
    1.6393   -2.6037   -0.6305 C   0  0  0  0  0  0  0  0  0  0  0  0
   -0.7139   -3.9984    1.8185 C   0  0  0  0  0  0  0  0  0  0  0  0
   -5.1593    3.0510   -0.5956 C   0  0  0  0  0  0  0  0  0  0  0  0
    3.4505    1.8102    0.6450 C   0  0  0  0  0  0  0  0  0  0  0  0
    2.4368    1.6953   -0.3110 C   0  0  0  0  0  0  0  0  0  0  0  0
    3.5469    2.9251    1.4933 C   0  0  0  0  0  0  0  0  0  0  0  0
    1.4872    2.7344   -0.4198 C   0  0  0  0  0  0  0  0  0  0  0  0
    2.5945    3.9392    1.3649 C   0  0  0  0  0  0  0  0  0  0  0  0
    1.5772    3.8471    0.4214 C   0  0  0  0  0  0  0  0  0  0  0  0
   -0.6999   -3.7438   -0.3054 H   0  0  0  0  0  0  0  0  0  0  0  0
   -2.4874   -2.5031   -0.3604 H   0  0  0  0  0  0  0  0  0  0  0  0
    3.5367   -1.5048   -2.3554 H   0  0  0  0  0  0  0  0  0  0  0  0
    4.9214   -1.6734   -1.2930 H   0  0  0  0  0  0  0  0  0  0  0  0
   -3.3217    2.0650   -2.3137 H   0  0  0  0  0  0  0  0  0  0  0  0
   -5.1973    1.3163    1.4764 H   0  0  0  0  0  0  0  0  0  0  0  0
    3.4715   -2.7100    0.4637 H   0  0  0  0  0  0  0  0  0  0  0  0
    3.4447   -3.6316   -1.0532 H   0  0  0  0  0  0  0  0  0  0  0  0
   -1.8722    0.5052   -3.2683 H   0  0  0  0  0  0  0  0  0  0  0  0
   -1.8119   -1.1352   -2.6389 H   0  0  0  0  0  0  0  0  0  0  0  0
   -0.6798    0.1041   -2.0252 H   0  0  0  0  0  0  0  0  0  0  0  0
   -4.1503   -1.9941    1.8265 H   0  0  0  0  0  0  0  0  0  0  0  0
   -2.9894   -0.9467    2.6898 H   0  0  0  0  0  0  0  0  0  0  0  0
   -4.7178   -0.5834    2.7159 H   0  0  0  0  0  0  0  0  0  0  0  0
   -1.8029   -4.0349    1.9205 H   0  0  0  0  0  0  0  0  0  0  0  0
   -0.3252   -5.0214    1.7828 H   0  0  0  0  0  0  0  0  0  0  0  0
   -0.3025   -3.5318    2.7206 H   0  0  0  0  0  0  0  0  0  0  0  0
   -5.3698    3.2521   -1.6515 H   0  0  0  0  0  0  0  0  0  0  0  0
   -6.1261    2.9563   -0.0895 H   0  0  0  0  0  0  0  0  0  0  0  0
   -4.6258    3.9089   -0.1745 H   0  0  0  0  0  0  0  0  0  0  0  0
    4.3384    3.0037    2.2322 H   0  0  0  0  0  0  0  0  0  0  0  0
    0.6873    2.6716   -1.1524 H   0  0  0  0  0  0  0  0  0  0  0  0
    2.6508    4.8107    2.0119 H   0  0  0  0  0  0  0  0  0  0  0  0
    0.8449    4.6452    0.3364 H   0  0  0  0  0  0  0  0  0  0  0  0
  1 17  1  0  0  0  0
  1 23  1  0  0  0  0
  2 10  1  0  0  0  0
  2 20  1  0  0  0  0
  3 16  2  0  0  0  0
  4 20  2  0  0  0  0
  5  7  1  0  0  0  0
  5 16  1  0  0  0  0
  5 30  1  0  0  0  0
  6 17  2  0  0  0  0
  6 24  1  0  0  0  0
  7  8  2  0  0  0  0
  7  9  1  0  0  0  0
  8 12  1  0  0  0  0
  8 18  1  0  0  0  0
  9 13  2  0  0  0  0
  9 19  1  0  0  0  0
 10 16  1  0  0  0  0
 10 21  1  0  0  0  0
 10 29  1  0  0  0  0
 11 12  2  0  0  0  0
 11 13  1  0  0  0  0
 11 22  1  0  0  0  0
 12 33  1  0  0  0  0
 13 34  1  0  0  0  0
 14 15  1  0  0  0  0
 14 17  1  0  0  0  0
 14 31  1  0  0  0  0
 14 32  1  0  0  0  0
 15 20  1  0  0  0  0
 15 35  1  0  0  0  0
 15 36  1  0  0  0  0
 18 37  1  0  0  0  0
 18 38  1  0  0  0  0
 18 39  1  0  0  0  0
 19 40  1  0  0  0  0
 19 41  1  0  0  0  0
 19 42  1  0  0  0  0
 21 43  1  0  0  0  0
 21 44  1  0  0  0  0
 21 45  1  0  0  0  0
 22 46  1  0  0  0  0
 22 47  1  0  0  0  0
 22 48  1  0  0  0  0
 23 24  1  0  0  0  0
 23 25  2  0  0  0  0
 24 26  2  0  0  0  0
 25 27  1  0  0  0  0
 25 49  1  0  0  0  0
 26 28  1  0  0  0  0
 26 50  1  0  0  0  0
 27 28  2  0  0  0  0
 27 51  1  0  0  0  0
 28 52  1  0  0  0  0
M  END
> <PUBCHEM_COMPOUND_CID>
7847005

> <PUBCHEM_CONFORMER_RMSD>
1

> <PUBCHEM_CONFORMER_DIVERSEORDER>
1
234
307
253
45
153
74
20
309
259
245
184
15
274
312
75
275
105
302
278
160
188
21
300
254
125
283
89
276
173
29
10
306
287
237
101
95
164
81
37
301
96
151
235
263
264
252
141
227
282
230
286
2
60
244
215
246
262
19
182
217
174
64
249
163
12
260
209
117
143
133
247
146
197
78
195
270
236
166
199
285
16
238
138
277
18
305
231
84
136
294
190
222
128
82
126
176
43
308
181
59
28
172
168
202
148
109
6
232
66
228
122
35
120
17
149
189
186
97
9
271
115
71
91
179
52
137
30
48
111
56
55
129
258
303
289
201
241
77
194
87
27
123
257
80
311
31
233
42
108
76
167
165
40
139
273
178
134
67
268
132
25
124
73
33
116
53
113
304
269
279
51
212
135
70
243
205
297
88
169
142
23
4
229
44
210
155
224
191
250
221
211
103
50
36
272
93
203
159
8
121
154
140
24
255
281
68
293
162
185
86
310
261
280
290
171
104
214
161
72
34
158
299
39
99
58
85
7
180
63
207
22
144
192
47
145
69
298
46
240
248
92
110
267
57
102
41
61
107
284
32
208
226
83
157
49
175
196
206
220
266
288
170
291
62
54
265
3
5
183
100
118
218
119
251
295
131
256
11
38
242
198
65
204
13
112
177
150
187
292
193
213
14
156
219
114
225
223
26
147
106
90
216
130
296
200
79
239
127
98
152
94

> <PUBCHEM_MMFF94_PARTIAL_CHARGES>
34
1 -0.08
10 0.34
11 -0.14
12 -0.15
13 -0.15
14 0.18
15 0.06
16 0.57
17 0.2
18 0.14
19 0.14
2 -0.43
20 0.66
22 0.14
23 0.04
24 0.23
25 -0.15
26 -0.15
27 -0.15
28 -0.15
3 -0.57
30 0.37
33 0.15
34 0.15
4 -0.57
49 0.15
5 -0.55
50 0.15
51 0.15
52 0.15
6 -0.57
7 0.12
8 -0.14
9 -0.14

> <PUBCHEM_EFFECTIVE_ROTOR_COUNT>
8

> <PUBCHEM_PHARMACOPHORE_FEATURES>
7
1 3 acceptor
1 4 acceptor
1 5 donor
1 6 acceptor
5 1 6 17 23 24 rings
6 23 24 25 26 27 28 rings
6 7 8 9 11 12 13 rings

> <PUBCHEM_HEAVY_ATOM_COUNT>
28

> <PUBCHEM_ATOM_DEF_STEREO_COUNT>
1

> <PUBCHEM_ATOM_UDEF_STEREO_COUNT>
0

> <PUBCHEM_BOND_DEF_STEREO_COUNT>
0

> <PUBCHEM_BOND_UDEF_STEREO_COUNT>
0

> <PUBCHEM_ISOTOPIC_ATOM_COUNT>
0

> <PUBCHEM_COMPONENT_COUNT>
1

> <PUBCHEM_CACTVS_TAUTO_COUNT>
4

> <PUBCHEM_CONFORMER_ID>
0077BC5D00000001

> <PUBCHEM_MMFF94_ENERGY>
79.7745

> <PUBCHEM_FEATURE_SELFOVERLAP>
35.593

> <PUBCHEM_SHAPE_FINGERPRINT>
11370993 70 18264213504274831968
11456790 92 17625536066781774449
12100795 323 18052539872218449100
12633257 1 18271528589763020426
12769317 202 18127691736805742927
12925494 130 18268145547689434249
13402501 40 18342454889156777828
13583140 156 18409158944452966333
14251757 17 18411133632328185769
14251764 38 18191595146558745948
150020 26 18200863058649204906
151778 21 18268697321235682676
15274700 34 17485372176004428247
15351339 4 17623010505018976993
17093844 170 18410015468248331888
19930381 70 18265048046764628409
20567600 299 18261397771055199012
21033648 29 18201148931910089390
21344244 78 17335360697194000755
21475661 188 18410294739484573229
21860390 5 18187358887281582982
22122407 14 17973710674613997745
25019877 29 14864792700282132966
3187 122 17408523935693006322
4371632 12 18194429773888705805
469060 322 16674730701906874526
4742675 86 17830745244107000807
5081480 168 17606371454117315062
508706 21 18272083860009318759
574716 61 17894923939999857477
7399639 24 17616527359592247874
7808743 9 17915440732690839478
9777508 108 18272358746849407251
9981440 41 17682422264060703568

> <PUBCHEM_SHAPE_MULTIPOLES>
552.51
9.55
5.4
1.77
5.13
0.15
0.05
6.36
-0.25
-2.83
-1.96
0.67
-0.37
3.01

> <PUBCHEM_SHAPE_SELFOVERLAP>
1168.013

> <PUBCHEM_SHAPE_VOLUME>
312

> <PUBCHEM_COORDINATE_TYPE>
2
5
10

$$$$

