9779
  -OEChem-06261204033D

 30 29  0     0  0  0  0  0  0999 V2000
   -1.1800    0.8833   -1.7309 F   0  0  0  0  0  0  0  0  0  0  0  0
    0.0161    2.3773   -0.7093 F   0  0  0  0  0  0  0  0  0  0  0  0
    1.4004    0.4036   -1.8391 F   0  0  0  0  0  0  0  0  0  0  0  0
    0.3321   -1.1222   -0.7226 F   0  0  0  0  0  0  0  0  0  0  0  0
   -2.3111    2.0161    0.4344 F   0  0  0  0  0  0  0  0  0  0  0  0
   -0.6654    1.4132    1.7063 F   0  0  0  0  0  0  0  0  0  0  0  0
    1.1663    0.1366    1.6683 F   0  0  0  0  0  0  0  0  0  0  0  0
    2.2571    1.5825    0.4600 F   0  0  0  0  0  0  0  0  0  0  0  0
   -2.8003   -0.0696    2.0652 F   0  0  0  0  0  0  0  0  0  0  0  0
   -1.1590   -1.2134    1.2301 F   0  0  0  0  0  0  0  0  0  0  0  0
    3.7545   -0.4500    1.4955 F   0  0  0  0  0  0  0  0  0  0  0  0
    2.5064   -1.9093    0.4701 F   0  0  0  0  0  0  0  0  0  0  0  0
   -2.3065   -1.1747   -1.2437 F   0  0  0  0  0  0  0  0  0  0  0  0
   -3.5107   -2.0199    0.3493 F   0  0  0  0  0  0  0  0  0  0  0  0
    4.3255    0.7510   -0.9117 F   0  0  0  0  0  0  0  0  0  0  0  0
    4.8955   -1.3438   -0.7538 F   0  0  0  0  0  0  0  0  0  0  0  0
   -4.9566   -0.6329   -1.5639 O   0  0  0  0  0  0  0  0  0  0  0  0
   -0.4419    1.0949   -0.6051 C   0  0  0  0  0  0  0  0  0  0  0  0
    0.7619    0.1621   -0.6571 C   0  0  0  0  0  0  0  0  0  0  0  0
   -1.3699    1.0421    0.6003 C   0  0  0  0  0  0  0  0  0  0  0  0
    1.7780    0.3075    0.4689 C   0  0  0  0  0  0  0  0  0  0  0  0
   -2.0840   -0.2647    0.9202 C   0  0  0  0  0  0  0  0  0  0  0  0
    2.9728   -0.6318    0.4003 C   0  0  0  0  0  0  0  0  0  0  0  0
   -3.0171   -0.8433   -0.1344 C   0  0  0  0  0  0  0  0  0  0  0  0
   -4.1945    0.0170   -0.5598 C   0  0  0  0  0  0  0  0  0  0  0  0
    3.8304   -0.5116   -0.8376 C   0  0  0  0  0  0  0  0  0  0  0  0
   -4.8512    0.2168    0.2924 H   0  0  0  0  0  0  0  0  0  0  0  0
   -3.8520    0.9644   -0.9836 H   0  0  0  0  0  0  0  0  0  0  0  0
    3.3044   -0.7532   -1.7625 H   0  0  0  0  0  0  0  0  0  0  0  0
   -5.6936   -0.0411   -1.7930 H   0  0  0  0  0  0  0  0  0  0  0  0
  1 18  1  0  0  0  0
  2 18  1  0  0  0  0
  3 19  1  0  0  0  0
  4 19  1  0  0  0  0
  5 20  1  0  0  0  0
  6 20  1  0  0  0  0
  7 21  1  0  0  0  0
  8 21  1  0  0  0  0
  9 22  1  0  0  0  0
 10 22  1  0  0  0  0
 11 23  1  0  0  0  0
 12 23  1  0  0  0  0
 13 24  1  0  0  0  0
 14 24  1  0  0  0  0
 15 26  1  0  0  0  0
 16 26  1  0  0  0  0
 17 25  1  0  0  0  0
 17 30  1  0  0  0  0
 18 19  1  0  0  0  0
 18 20  1  0  0  0  0
 19 21  1  0  0  0  0
 20 22  1  0  0  0  0
 21 23  1  0  0  0  0
 22 24  1  0  0  0  0
 23 26  1  0  0  0  0
 24 25  1  0  0  0  0
 25 27  1  0  0  0  0
 25 28  1  0  0  0  0
 26 29  1  0  0  0  0
M  END
> <PUBCHEM_COMPOUND_CID>
9779

> <PUBCHEM_CONFORMER_RMSD>
0.8

> <PUBCHEM_CONFORMER_DIVERSEORDER>
3
97
56
191
102
129
182
139
16
144
21
75
231
222
230
9
195
80
152
232
157
42
40
184
70
58
88
151
161
32
235
200
5
225
214
53
73
167
94
192
81
78
198
171
132
194
26
123
59
237
92
130
15
136
140
236
107
63
205
19
162
146
72
233
211
172
41
185
84
95
163
229
153
55
186
22
178
131
216
36
176
121
106
96
89
101
1
50
45
60
166
215
207
23
155
35
12
103
197
8
114
118
169
125
193
220
227
210
29
196
64
7
120
18
238
43
174
117
83
66
105
119
156
113
111
57
28
87
11
67
190
10
82
188
20
234
90
189
71
212
24
173
51
145
54
133
180
65
116
108
85
206
112
160
183
138
217
79
31
147
86
77
38
17
187
27
69
159
141
154
150
6
158
164
213
165
127
47
46
149
128
228
61
44
124
202
76
33
104
179
201
177
37
224
203
100
98
209
93
143
208
181
13
134
49
175
39
109
115
99
168
110
68
226
170
62
142
52
204
14
74
199
34
219
137
221
135
25
91
223
48
2
30
4
148
122
126
218

> <PUBCHEM_MMFF94_PARTIAL_CHARGES>
27
1 -0.34
10 -0.34
11 -0.34
12 -0.34
13 -0.34
14 -0.34
15 -0.34
16 -0.34
17 -0.68
18 0.68
19 0.68
2 -0.34
20 0.68
21 0.68
22 0.68
23 0.68
24 0.68
25 0.28
26 0.68
3 -0.34
30 0.4
4 -0.34
5 -0.34
6 -0.34
7 -0.34
8 -0.34
9 -0.34

> <PUBCHEM_EFFECTIVE_ROTOR_COUNT>
8

> <PUBCHEM_PHARMACOPHORE_FEATURES>
2
1 17 acceptor
1 17 donor

> <PUBCHEM_HEAVY_ATOM_COUNT>
26

> <PUBCHEM_ATOM_DEF_STEREO_COUNT>
0

> <PUBCHEM_ATOM_UDEF_STEREO_COUNT>
0

> <PUBCHEM_BOND_DEF_STEREO_COUNT>
0

> <PUBCHEM_BOND_UDEF_STEREO_COUNT>
0

> <PUBCHEM_ISOTOPIC_ATOM_COUNT>
0

> <PUBCHEM_COMPONENT_COUNT>
1

> <PUBCHEM_CACTVS_TAUTO_COUNT>
1

> <PUBCHEM_CONFORMER_ID>
0000263300000003

> <PUBCHEM_MMFF94_ENERGY>
21.2605

> <PUBCHEM_FEATURE_SELFOVERLAP>
10.148

> <PUBCHEM_SHAPE_FINGERPRINT>
10366900 7 16298662811228390334
10863032 1 18043255849467642889
11046707 91 18040432187659325231
11132069 177 17095530551959957599
11578080 2 18337687333756770269
12011746 2 18333450953982262334
12553582 1 18272363187596872498
12633257 1 15792001239147707635
12788726 201 17560249144624447925
12808571 1 9511191767305094113
13224815 77 18131068234214508958
13288520 33 18040431126934291598
13583140 156 13912606116652731831
13675066 3 5545201593109919342
14289901 80 18335133228695820000
14943859 89 9871749083230690613
15309172 13 16443069434520794540
15375358 24 16128655228235455814
15375462 478 15430039825076422769
16752209 62 18410017675312596971
16945 1 18127959824342842833
17349148 13 17095527262468534093
17834072 14 18410019805927495125
17959699 21 14979955878344222422
18186145 218 9511466636485103216
19862831 5 17632859724027406118
200 152 18334580148176357127
20871999 31 17988928911219955613
21069387 34 18262239920021793023
22854114 59 14273455864274982663
23402539 116 18409729599345659709
23559900 14 18340493265965924736
24859131 72 16587742036326729583
25 1 14117806816398331593
296302 2 17704072858807138285
3286 77 16732988608703064274
465052 167 17095807612021609287
6442390 28 8862653659846282981

> <PUBCHEM_SHAPE_MULTIPOLES>
412.82
7.82
1.69
1.59
1.59
0.28
0.16
-3.12
-1.65
-0.28
0.02
-0.36
0.09
-0.22

> <PUBCHEM_SHAPE_SELFOVERLAP>
885.699

> <PUBCHEM_SHAPE_VOLUME>
223.7

> <PUBCHEM_COORDINATE_TYPE>
2
5
10

$$$$

