583085
  -OEChem-06241222443D

 21 22  0     0  0  0  0  0  0999 V2000
   -0.5168   -1.9134    0.1032 O   0  0  0  0  0  0  0  0  0  0  0  0
   -0.0205    0.4761   -0.0053 C   0  0  0  0  0  0  0  0  0  0  0  0
   -1.4509    0.8177    0.0158 C   0  0  0  0  0  0  0  0  0  0  0  0
    0.3657   -0.8707    0.0358 C   0  0  0  0  0  0  0  0  0  0  0  0
   -1.9006   -1.6334   -0.1240 C   0  0  0  0  0  0  0  0  0  0  0  0
   -2.3185   -0.2010   -0.0441 C   0  0  0  0  0  0  0  0  0  0  0  0
    0.9857    1.4547   -0.0508 C   0  0  0  0  0  0  0  0  0  0  0  0
   -1.9031    2.2445    0.0847 C   0  0  0  0  0  0  0  0  0  0  0  0
    1.7191   -1.2274    0.0427 C   0  0  0  0  0  0  0  0  0  0  0  0
    2.3365    1.0967   -0.0530 C   0  0  0  0  0  0  0  0  0  0  0  0
    2.7033   -0.2440   -0.0049 C   0  0  0  0  0  0  0  0  0  0  0  0
   -2.4631   -2.2055    0.6219 H   0  0  0  0  0  0  0  0  0  0  0  0
   -2.1667   -2.0354   -1.1081 H   0  0  0  0  0  0  0  0  0  0  0  0
   -3.3875   -0.0047   -0.0511 H   0  0  0  0  0  0  0  0  0  0  0  0
    0.7422    2.5136   -0.0847 H   0  0  0  0  0  0  0  0  0  0  0  0
   -1.5140    2.7326    0.9845 H   0  0  0  0  0  0  0  0  0  0  0  0
   -2.9953    2.3242    0.1211 H   0  0  0  0  0  0  0  0  0  0  0  0
   -1.5671    2.8028   -0.7955 H   0  0  0  0  0  0  0  0  0  0  0  0
    2.0114   -2.2737    0.0836 H   0  0  0  0  0  0  0  0  0  0  0  0
    3.1008    1.8678   -0.0891 H   0  0  0  0  0  0  0  0  0  0  0  0
    3.7528   -0.5226   -0.0028 H   0  0  0  0  0  0  0  0  0  0  0  0
  1  4  1  0  0  0  0
  1  5  1  0  0  0  0
  2  3  1  0  0  0  0
  2  4  1  0  0  0  0
  2  7  2  0  0  0  0
  3  6  2  0  0  0  0
  3  8  1  0  0  0  0
  4  9  2  0  0  0  0
  5  6  1  0  0  0  0
  5 12  1  0  0  0  0
  5 13  1  0  0  0  0
  6 14  1  0  0  0  0
  7 10  1  0  0  0  0
  7 15  1  0  0  0  0
  8 16  1  0  0  0  0
  8 17  1  0  0  0  0
  8 18  1  0  0  0  0
  9 11  1  0  0  0  0
  9 19  1  0  0  0  0
 10 11  2  0  0  0  0
 10 20  1  0  0  0  0
 11 21  1  0  0  0  0
M  END
> <PUBCHEM_COMPOUND_CID>
583085

> <PUBCHEM_CONFORMER_RMSD>
0.4

> <PUBCHEM_CONFORMER_DIVERSEORDER>
1

> <PUBCHEM_MMFF94_PARTIAL_CHARGES>
16
1 -0.36
10 -0.15
11 -0.15
14 0.15
15 0.15
19 0.15
2 0.03
20 0.15
21 0.15
3 -0.17
4 0.08
5 0.42
6 -0.29
7 -0.15
8 0.14
9 -0.15

> <PUBCHEM_EFFECTIVE_ROTOR_COUNT>
0.4

> <PUBCHEM_PHARMACOPHORE_FEATURES>
3
1 1 acceptor
6 1 2 3 4 5 6 rings
6 2 4 7 9 10 11 rings

> <PUBCHEM_HEAVY_ATOM_COUNT>
11

> <PUBCHEM_ATOM_DEF_STEREO_COUNT>
0

> <PUBCHEM_ATOM_UDEF_STEREO_COUNT>
0

> <PUBCHEM_BOND_DEF_STEREO_COUNT>
0

> <PUBCHEM_BOND_UDEF_STEREO_COUNT>
0

> <PUBCHEM_ISOTOPIC_ATOM_COUNT>
0

> <PUBCHEM_COMPONENT_COUNT>
1

> <PUBCHEM_CACTVS_TAUTO_COUNT>
1

> <PUBCHEM_CONFORMER_ID>
0008E5AD00000001

> <PUBCHEM_MMFF94_ENERGY>
31.9012

> <PUBCHEM_FEATURE_SELFOVERLAP>
15.252

> <PUBCHEM_SHAPE_FINGERPRINT>
11206711 2 18411417293395445844
12423570 1 17894910724064071855
12897270 3 18338518521438407668
13380535 76 18266464398119183165
14325111 11 18410855490304014480
16945 1 18410573950902547526
193761 8 18266459987035036167
19973954 147 18410854347900495684
20871998 184 18187642453701774447
21040471 1 18338797917867335176
21501502 16 18410855451791460788
23552423 10 18272088232375281054
23559900 14 18117552063093909806
241688 4 18122064208671594131
2748010 2 18266456705437091268
5084963 1 18187365432458190160
528886 8 18194688291615982664
66348 1 18411420626284720852

> <PUBCHEM_SHAPE_MULTIPOLES>
220.51
3.57
2.18
0.61
0.73
0.17
0
0.32
-0.04
-0.86
0.03
0
0.01
-0.09

> <PUBCHEM_SHAPE_SELFOVERLAP>
474.368

> <PUBCHEM_SHAPE_VOLUME>
122.2

> <PUBCHEM_COORDINATE_TYPE>
2
5
10

$$$$

