9294
  -OEChem-06261203343D

 27 27  0     1  0  0  0  0  0999 V2000
   -1.1049   -0.8064   -1.5483 O   0  0  0  0  0  0  0  0  0  0  0  0
   -3.1612    0.0085    0.3213 N   0  0  0  0  0  0  0  0  0  0  0  0
   -1.7436   -0.0866    0.6924 C   0  0  2  0  0  0  0  0  0  0  0  0
   -0.8642    0.1875   -0.5484 C   0  0  1  0  0  0  0  0  0  0  0  0
    0.6213    0.1641   -0.2580 C   0  0  0  0  0  0  0  0  0  0  0  0
   -1.5037   -1.4751    1.2880 C   0  0  0  0  0  0  0  0  0  0  0  0
    1.2552    1.3370    0.1131 C   0  0  0  0  0  0  0  0  0  0  0  0
    1.3125   -1.0297   -0.3697 C   0  0  0  0  0  0  0  0  0  0  0  0
   -3.4535    1.3145   -0.2430 C   0  0  0  0  0  0  0  0  0  0  0  0
    2.6239    1.3155    0.3810 C   0  0  0  0  0  0  0  0  0  0  0  0
    2.6813   -1.0510   -0.1018 C   0  0  0  0  0  0  0  0  0  0  0  0
    3.3369    0.1217    0.2735 C   0  0  0  0  0  0  0  0  0  0  0  0
   -1.5255    0.6531    1.4738 H   0  0  0  0  0  0  0  0  0  0  0  0
   -1.0713    1.1587   -1.0102 H   0  0  0  0  0  0  0  0  0  0  0  0
   -0.4983   -1.5616    1.7109 H   0  0  0  0  0  0  0  0  0  0  0  0
   -2.2030   -1.6658    2.1112 H   0  0  0  0  0  0  0  0  0  0  0  0
   -1.6396   -2.2738    0.5508 H   0  0  0  0  0  0  0  0  0  0  0  0
   -3.4130   -0.7226   -0.3420 H   0  0  0  0  0  0  0  0  0  0  0  0
    0.7074    2.2706    0.2022 H   0  0  0  0  0  0  0  0  0  0  0  0
    0.8283   -1.9606   -0.6487 H   0  0  0  0  0  0  0  0  0  0  0  0
   -2.0184   -0.6946   -1.8604 H   0  0  0  0  0  0  0  0  0  0  0  0
   -3.1439    1.4059   -1.2884 H   0  0  0  0  0  0  0  0  0  0  0  0
   -3.0237    2.1323    0.3456 H   0  0  0  0  0  0  0  0  0  0  0  0
   -4.5394    1.4590   -0.2342 H   0  0  0  0  0  0  0  0  0  0  0  0
    3.1343    2.2283    0.6743 H   0  0  0  0  0  0  0  0  0  0  0  0
    3.2364   -1.9811   -0.1827 H   0  0  0  0  0  0  0  0  0  0  0  0
    4.4025    0.1048    0.4830 H   0  0  0  0  0  0  0  0  0  0  0  0
  1  4  1  0  0  0  0
  1 21  1  0  0  0  0
  2  3  1  0  0  0  0
  2  9  1  0  0  0  0
  2 18  1  0  0  0  0
  3  4  1  0  0  0  0
  3  6  1  0  0  0  0
  3 13  1  0  0  0  0
  4  5  1  0  0  0  0
  4 14  1  0  0  0  0
  5  7  2  0  0  0  0
  5  8  1  0  0  0  0
  6 15  1  0  0  0  0
  6 16  1  0  0  0  0
  6 17  1  0  0  0  0
  7 10  1  0  0  0  0
  7 19  1  0  0  0  0
  8 11  2  0  0  0  0
  8 20  1  0  0  0  0
  9 22  1  0  0  0  0
  9 23  1  0  0  0  0
  9 24  1  0  0  0  0
 10 12  2  0  0  0  0
 10 25  1  0  0  0  0
 11 12  1  0  0  0  0
 11 26  1  0  0  0  0
 12 27  1  0  0  0  0
M  END
> <PUBCHEM_COMPOUND_CID>
9294

> <PUBCHEM_CONFORMER_RMSD>
0.6

> <PUBCHEM_CONFORMER_DIVERSEORDER>
5
7
6
2
3
4
1

> <PUBCHEM_MMFF94_PARTIAL_CHARGES>
18
1 -0.68
10 -0.15
11 -0.15
12 -0.15
18 0.36
19 0.15
2 -0.9
20 0.15
21 0.4
25 0.15
26 0.15
27 0.15
3 0.27
4 0.42
5 -0.14
7 -0.15
8 -0.15
9 0.27

> <PUBCHEM_EFFECTIVE_ROTOR_COUNT>
3

> <PUBCHEM_PHARMACOPHORE_FEATURES>
5
1 1 acceptor
1 1 donor
1 2 cation
1 2 donor
6 5 7 8 10 11 12 rings

> <PUBCHEM_HEAVY_ATOM_COUNT>
12

> <PUBCHEM_ATOM_DEF_STEREO_COUNT>
2

> <PUBCHEM_ATOM_UDEF_STEREO_COUNT>
0

> <PUBCHEM_BOND_DEF_STEREO_COUNT>
0

> <PUBCHEM_BOND_UDEF_STEREO_COUNT>
0

> <PUBCHEM_ISOTOPIC_ATOM_COUNT>
0

> <PUBCHEM_COMPONENT_COUNT>
1

> <PUBCHEM_CACTVS_TAUTO_COUNT>
1

> <PUBCHEM_CONFORMER_ID>
0000244E00000005

> <PUBCHEM_MMFF94_ENERGY>
28.2962

> <PUBCHEM_FEATURE_SELFOVERLAP>
25.374

> <PUBCHEM_SHAPE_FINGERPRINT>
10219947 1 17968093161652238990
10608611 8 18413108338068783417
124424 183 18412265072863840632
12500047 106 18131350816913149347
12897270 3 7853576781580779249
12932764 1 17895752881356758448
14325111 11 18408886226408195633
14993402 34 17385724711755702204
15219456 202 18341609304490400320
15775835 57 17749390317294140280
16945 1 18261942050595555818
18186145 218 18341331210011751573
20201158 50 18412823616191489338
20645464 45 18202567271797384323
20715346 28 18337096900143208138
20871998 22 17826226586973260574
21501502 16 17916577610080201508
23402539 116 18411143537440342917
23402655 69 18188499076666308517
3248919 1 18059860502187247596
369184 2 18408323259253760739
5084963 1 15719940453589849885
69090 78 18410294696993907523

> <PUBCHEM_SHAPE_MULTIPOLES>
236.1
5.41
1.49
1.01
0.99
0.03
0.11
1.16
-0.56
-0.02
-0.21
0.37
-0.29
0.53

> <PUBCHEM_SHAPE_SELFOVERLAP>
477.508

> <PUBCHEM_SHAPE_VOLUME>
138.8

> <PUBCHEM_COORDINATE_TYPE>
2
5
10

$$$$

