12891
  -OEChem-06261207302D

 33 34  0     0  0  0  0  0  0999 V2000
    4.2690   -1.8450    0.0000 O   0  0  0  0  0  0  0  0  0  0  0  0
    4.2690   -2.8450    0.0000 N   0  0  0  0  0  0  0  0  0  0  0  0
    3.4030   -4.3450    0.0000 N   0  0  0  0  0  0  0  0  0  0  0  0
    2.5369   -2.8450    0.0000 N   0  0  0  0  0  0  0  0  0  0  0  0
    5.1350    1.6550    0.0000 C   0  0  0  0  0  0  0  0  0  0  0  0
    5.1350    2.6550    0.0000 C   0  0  0  0  0  0  0  0  0  0  0  0
    5.1350   -0.3450    0.0000 C   0  0  0  0  0  0  0  0  0  0  0  0
    4.2690    1.1550    0.0000 C   0  0  0  0  0  0  0  0  0  0  0  0
    6.0010    1.1550    0.0000 C   0  0  0  0  0  0  0  0  0  0  0  0
    4.2690    0.1550    0.0000 C   0  0  0  0  0  0  0  0  0  0  0  0
    6.0010    0.1550    0.0000 C   0  0  0  0  0  0  0  0  0  0  0  0
    5.1350   -1.3450    0.0000 C   0  0  0  0  0  0  0  0  0  0  0  0
    6.0010    3.1550    0.0000 C   0  0  0  0  0  0  0  0  0  0  0  0
    4.2690    3.1550    0.0000 C   0  0  0  0  0  0  0  0  0  0  0  0
    6.0010    4.1550    0.0000 C   0  0  0  0  0  0  0  0  0  0  0  0
    4.2690    4.1550    0.0000 C   0  0  0  0  0  0  0  0  0  0  0  0
    5.1350    4.6550    0.0000 C   0  0  0  0  0  0  0  0  0  0  0  0
    3.4030   -3.3450    0.0000 C   0  0  0  0  0  0  0  0  0  0  0  0
    3.7320    1.4650    0.0000 H   0  0  0  0  0  0  0  0  0  0  0  0
    6.5380    1.4650    0.0000 H   0  0  0  0  0  0  0  0  0  0  0  0
    3.7320   -0.1550    0.0000 H   0  0  0  0  0  0  0  0  0  0  0  0
    6.5380   -0.1550    0.0000 H   0  0  0  0  0  0  0  0  0  0  0  0
    5.3471   -1.9276    0.0000 H   0  0  0  0  0  0  0  0  0  0  0  0
    5.7456   -1.2373    0.0000 H   0  0  0  0  0  0  0  0  0  0  0  0
    6.5380    2.8450    0.0000 H   0  0  0  0  0  0  0  0  0  0  0  0
    3.7320    2.8450    0.0000 H   0  0  0  0  0  0  0  0  0  0  0  0
    6.5380    4.4650    0.0000 H   0  0  0  0  0  0  0  0  0  0  0  0
    3.7320    4.4650    0.0000 H   0  0  0  0  0  0  0  0  0  0  0  0
    5.1350    5.2750    0.0000 H   0  0  0  0  0  0  0  0  0  0  0  0
    2.0000   -3.1550    0.0000 H   0  0  0  0  0  0  0  0  0  0  0  0
    2.5369   -2.2250    0.0000 H   0  0  0  0  0  0  0  0  0  0  0  0
    2.8660   -4.6550    0.0000 H   0  0  0  0  0  0  0  0  0  0  0  0
    3.9399   -4.6550    0.0000 H   0  0  0  0  0  0  0  0  0  0  0  0
  1  2  1  0  0  0  0
  1 12  1  0  0  0  0
  2 18  2  0  0  0  0
  3 18  1  0  0  0  0
  3 32  1  0  0  0  0
  3 33  1  0  0  0  0
  4 18  1  0  0  0  0
  4 30  1  0  0  0  0
  4 31  1  0  0  0  0
  5  6  1  0  0  0  0
  5  8  2  0  0  0  0
  5  9  1  0  0  0  0
  6 13  2  0  0  0  0
  6 14  1  0  0  0  0
  7 10  2  0  0  0  0
  7 11  1  0  0  0  0
  7 12  1  0  0  0  0
  8 10  1  0  0  0  0
  8 19  1  0  0  0  0
  9 11  2  0  0  0  0
  9 20  1  0  0  0  0
 10 21  1  0  0  0  0
 11 22  1  0  0  0  0
 12 23  1  0  0  0  0
 12 24  1  0  0  0  0
 13 15  1  0  0  0  0
 13 25  1  0  0  0  0
 14 16  2  0  0  0  0
 14 26  1  0  0  0  0
 15 17  2  0  0  0  0
 15 27  1  0  0  0  0
 16 17  1  0  0  0  0
 16 28  1  0  0  0  0
 17 29  1  0  0  0  0
M  END
> <PUBCHEM_COMPOUND_CID>
12891

> <PUBCHEM_COMPOUND_CANONICALIZED>
1

> <PUBCHEM_CACTVS_COMPLEXITY>
262

> <PUBCHEM_CACTVS_HBOND_ACCEPTOR>
2

> <PUBCHEM_CACTVS_HBOND_DONOR>
2

> <PUBCHEM_CACTVS_ROTATABLE_BOND>
4

> <PUBCHEM_CACTVS_SUBSKEYS>
AAADccBzIAAAAAAAAAAAAAAAAAAAAAAAAAAwYAAAAAAAAAABQAAAHgAUAAAADACgmAIxAIBQAACgAiBCIAACAAAgAAAIiAAACIgIJiKAERCAMAAkwAEIiAeAwPAOwAAAAAAAAACAAAAAAAAAAAAAAAAAAA==

> <PUBCHEM_IUPAC_OPENEYE_NAME>
2-[(4-phenylphenyl)methoxy]guanidine

> <PUBCHEM_IUPAC_CAS_NAME>
2-[(4-phenylphenyl)methoxy]guanidine

> <PUBCHEM_IUPAC_NAME>
2-[(4-phenylphenyl)methoxy]guanidine

> <PUBCHEM_IUPAC_SYSTEMATIC_NAME>
2-[(4-phenylphenyl)methoxy]guanidine

> <PUBCHEM_IUPAC_TRADITIONAL_NAME>
2-(4-phenylbenzyl)oxyguanidine

> <PUBCHEM_IUPAC_INCHI>
InChI=1S/C14H15N3O/c15-14(16)17-18-10-11-6-8-13(9-7-11)12-4-2-1-3-5-12/h1-9H,10H2,(H4,15,16,17)

> <PUBCHEM_IUPAC_INCHIKEY>
YAFAWKGEYJVRGG-UHFFFAOYSA-N

> <PUBCHEM_XLOGP3_AA>
2.3

> <PUBCHEM_EXACT_MASS>
241.121512

> <PUBCHEM_MOLECULAR_FORMULA>
C14H15N3O

> <PUBCHEM_MOLECULAR_WEIGHT>
241.2884

> <PUBCHEM_OPENEYE_CAN_SMILES>
C1=CC=C(C=C1)C2=CC=C(C=C2)CON=C(N)N

> <PUBCHEM_OPENEYE_ISO_SMILES>
C1=CC=C(C=C1)C2=CC=C(C=C2)CON=C(N)N

> <PUBCHEM_CACTVS_TPSA>
73.6

> <PUBCHEM_MONOISOTOPIC_WEIGHT>
241.121512

> <PUBCHEM_TOTAL_CHARGE>
0

> <PUBCHEM_HEAVY_ATOM_COUNT>
18

> <PUBCHEM_ATOM_DEF_STEREO_COUNT>
0

> <PUBCHEM_ATOM_UDEF_STEREO_COUNT>
0

> <PUBCHEM_BOND_DEF_STEREO_COUNT>
0

> <PUBCHEM_BOND_UDEF_STEREO_COUNT>
0

> <PUBCHEM_ISOTOPIC_ATOM_COUNT>
0

> <PUBCHEM_COMPONENT_COUNT>
1

> <PUBCHEM_CACTVS_TAUTO_COUNT>
2

> <PUBCHEM_COORDINATE_TYPE>
1
5
255

> <PUBCHEM_BONDANNOTATIONS>
13  15  8
14  16  8
15  17  8
16  17  8
5  8  8
5  9  8
6  13  8
6  14  8
7  10  8
7  11  8
8  10  8
9  11  8

$$$$

