13376
  -OEChem-06261209273D

 18 17  0     0  0  0  0  0  0999 V2000
    2.3684   -1.1858   -0.2973 O   0  0  0  0  0  0  0  0  0  0  0  0
    1.4419    0.8754    0.2947 N   0  0  0  0  0  0  0  0  0  0  0  0
   -0.8993    0.1508    0.3291 C   0  0  0  0  0  0  0  0  0  0  0  0
   -2.2015    0.0786   -0.4693 C   0  0  0  0  0  0  0  0  0  0  0  0
    0.2159    0.7975   -0.4907 C   0  0  0  0  0  0  0  0  0  0  0  0
   -3.3071   -0.5958    0.3271 C   0  0  0  0  0  0  0  0  0  0  0  0
    2.3817   -0.1208    0.3063 C   0  0  0  0  0  0  0  0  0  0  0  0
   -1.0599    0.7235    1.2511 H   0  0  0  0  0  0  0  0  0  0  0  0
   -0.5958   -0.8582    0.6350 H   0  0  0  0  0  0  0  0  0  0  0  0
   -2.0378   -0.4794   -1.3986 H   0  0  0  0  0  0  0  0  0  0  0  0
   -2.5225    1.0887   -0.7493 H   0  0  0  0  0  0  0  0  0  0  0  0
    0.4120    0.2206   -1.4009 H   0  0  0  0  0  0  0  0  0  0  0  0
   -0.0518    1.8204   -0.7746 H   0  0  0  0  0  0  0  0  0  0  0  0
   -4.2285   -0.6354   -0.2621 H   0  0  0  0  0  0  0  0  0  0  0  0
   -3.0297   -1.6208    0.5931 H   0  0  0  0  0  0  0  0  0  0  0  0
   -3.5170   -0.0457    1.2499 H   0  0  0  0  0  0  0  0  0  0  0  0
    1.5963    1.7036    0.8622 H   0  0  0  0  0  0  0  0  0  0  0  0
    3.2215    0.1493    0.9680 H   0  0  0  0  0  0  0  0  0  0  0  0
  1  7  2  0  0  0  0
  2  5  1  0  0  0  0
  2  7  1  0  0  0  0
  2 17  1  0  0  0  0
  3  4  1  0  0  0  0
  3  5  1  0  0  0  0
  3  8  1  0  0  0  0
  3  9  1  0  0  0  0
  4  6  1  0  0  0  0
  4 10  1  0  0  0  0
  4 11  1  0  0  0  0
  5 12  1  0  0  0  0
  5 13  1  0  0  0  0
  6 14  1  0  0  0  0
  6 15  1  0  0  0  0
  6 16  1  0  0  0  0
  7 18  1  0  0  0  0
M  END
> <PUBCHEM_COMPOUND_CID>
13376

> <PUBCHEM_CONFORMER_RMSD>
0.6

> <PUBCHEM_CONFORMER_DIVERSEORDER>
1
9
26
19
14
21
22
17
12
24
25
2
5
20
23
13
3
4
16
15
6
10
7
8
18
11

> <PUBCHEM_MMFF94_PARTIAL_CHARGES>
6
1 -0.57
17 0.37
18 0.06
2 -0.73
5 0.3
7 0.57

> <PUBCHEM_EFFECTIVE_ROTOR_COUNT>
4

> <PUBCHEM_PHARMACOPHORE_FEATURES>
3
1 1 acceptor
1 2 donor
1 6 hydrophobe

> <PUBCHEM_HEAVY_ATOM_COUNT>
7

> <PUBCHEM_ATOM_DEF_STEREO_COUNT>
0

> <PUBCHEM_ATOM_UDEF_STEREO_COUNT>
0

> <PUBCHEM_BOND_DEF_STEREO_COUNT>
0

> <PUBCHEM_BOND_UDEF_STEREO_COUNT>
0

> <PUBCHEM_ISOTOPIC_ATOM_COUNT>
0

> <PUBCHEM_COMPONENT_COUNT>
1

> <PUBCHEM_CACTVS_TAUTO_COUNT>
2

> <PUBCHEM_CONFORMER_ID>
0000344000000001

> <PUBCHEM_MMFF94_ENERGY>
-3.0322

> <PUBCHEM_FEATURE_SELFOVERLAP>
15.223

> <PUBCHEM_SHAPE_FINGERPRINT>
12897270 3 12031788075924974811
12932764 1 17603872169629754517
14390081 3 8430321229570118739
20096714 4 9799400135996999324
21293036 1 16200425853859460695
29004967 10 18411142424194617008
5460574 1 7204780301768489209

> <PUBCHEM_SHAPE_MULTIPOLES>
133.21
4.88
1
0.73
1.66
0.07
-0.01
1.58
0.26
-0.36
-0.07
0.06
-0.01
0.25

> <PUBCHEM_SHAPE_SELFOVERLAP>
232.71

> <PUBCHEM_SHAPE_VOLUME>
87.6

> <PUBCHEM_COORDINATE_TYPE>
2
5
10

$$$$

