10775
  -OEChem-06261204573D

 31 31  0     1  0  0  0  0  0999 V2000
    1.0494   -0.2747   -0.8491 O   0  0  0  0  0  0  0  0  0  0  0  0
   -1.5539   -0.6941   -1.7824 O   0  0  0  0  0  0  0  0  0  0  0  0
   -3.6792   -0.3633    0.0389 O   0  0  0  0  0  0  0  0  0  0  0  0
   -4.9340    1.3606    0.9067 O   0  0  0  0  0  0  0  0  0  0  0  0
   -5.8889   -0.6619    0.3733 N   0  0  0  0  0  0  0  0  0  0  0  0
   -1.3105   -0.3290   -0.4219 C   0  0  1  0  0  0  0  0  0  0  0  0
   -0.0411    0.5116   -0.3806 C   0  0  0  0  0  0  0  0  0  0  0  0
   -2.5128    0.4512    0.0974 C   0  0  0  0  0  0  0  0  0  0  0  0
    2.2867    0.0257   -0.3447 C   0  0  0  0  0  0  0  0  0  0  0  0
    3.0139   -0.9296    0.3586 C   0  0  0  0  0  0  0  0  0  0  0  0
    2.8058    1.3010   -0.5464 C   0  0  0  0  0  0  0  0  0  0  0  0
    4.2728   -0.6064    0.8652 C   0  0  0  0  0  0  0  0  0  0  0  0
    2.4674   -2.3011    0.5814 C   0  0  0  0  0  0  0  0  0  0  0  0
    4.0647    1.6239   -0.0399 C   0  0  0  0  0  0  0  0  0  0  0  0
    4.7981    0.6704    0.6658 C   0  0  0  0  0  0  0  0  0  0  0  0
   -4.8382    0.2157    0.4776 C   0  0  0  0  0  0  0  0  0  0  0  0
   -1.1867   -1.2638    0.1362 H   0  0  0  0  0  0  0  0  0  0  0  0
    0.1395    0.8577    0.6451 H   0  0  0  0  0  0  0  0  0  0  0  0
   -0.1396    1.3816   -1.0407 H   0  0  0  0  0  0  0  0  0  0  0  0
   -2.6791    1.3380   -0.5266 H   0  0  0  0  0  0  0  0  0  0  0  0
   -2.3387    0.7633    1.1338 H   0  0  0  0  0  0  0  0  0  0  0  0
    2.2500    2.0511   -1.1018 H   0  0  0  0  0  0  0  0  0  0  0  0
    4.8572   -1.3376    1.4173 H   0  0  0  0  0  0  0  0  0  0  0  0
    3.1643   -2.9339    1.1412 H   0  0  0  0  0  0  0  0  0  0  0  0
    1.5353   -2.2499    1.1538 H   0  0  0  0  0  0  0  0  0  0  0  0
    2.2731   -2.7934   -0.3773 H   0  0  0  0  0  0  0  0  0  0  0  0
   -0.7717   -1.1787   -2.0977 H   0  0  0  0  0  0  0  0  0  0  0  0
    4.4748    2.6173   -0.1967 H   0  0  0  0  0  0  0  0  0  0  0  0
    5.7784    0.9219    1.0598 H   0  0  0  0  0  0  0  0  0  0  0  0
   -5.7593   -1.6007    0.0114 H   0  0  0  0  0  0  0  0  0  0  0  0
   -6.8272   -0.3986    0.6550 H   0  0  0  0  0  0  0  0  0  0  0  0
  1  7  1  0  0  0  0
  1  9  1  0  0  0  0
  2  6  1  0  0  0  0
  2 27  1  0  0  0  0
  3  8  1  0  0  0  0
  3 16  1  0  0  0  0
  4 16  2  0  0  0  0
  5 16  1  0  0  0  0
  5 30  1  0  0  0  0
  5 31  1  0  0  0  0
  6  7  1  0  0  0  0
  6  8  1  0  0  0  0
  6 17  1  0  0  0  0
  7 18  1  0  0  0  0
  7 19  1  0  0  0  0
  8 20  1  0  0  0  0
  8 21  1  0  0  0  0
  9 10  1  0  0  0  0
  9 11  2  0  0  0  0
 10 12  2  0  0  0  0
 10 13  1  0  0  0  0
 11 14  1  0  0  0  0
 11 22  1  0  0  0  0
 12 15  1  0  0  0  0
 12 23  1  0  0  0  0
 13 24  1  0  0  0  0
 13 25  1  0  0  0  0
 13 26  1  0  0  0  0
 14 15  2  0  0  0  0
 14 28  1  0  0  0  0
 15 29  1  0  0  0  0
M  END
> <PUBCHEM_COMPOUND_CID>
10775

> <PUBCHEM_CONFORMER_RMSD>
0.8

> <PUBCHEM_CONFORMER_DIVERSEORDER>
1
151
169
32
38
146
16
117
90
182
191
216
193
15
129
148
131
214
209
156
69
80
68
212
180
215
140
67
14
184
204
36
217
3
197
86
22
105
118
200
202
136
57
59
173
70
181
94
190
153
189
8
116
161
119
185
71
52
95
138
65
159
171
101
174
7
203
195
93
55
98
60
10
177
58
81
66
35
44
126
20
183
192
19
115
109
168
64
113
121
213
48
2
211
149
97
72
176
87
25
40
210
147
74
139
11
123
160
112
137
198
102
107
56
157
91
164
172
79
73
152
145
106
199
165
207
17
89
187
54
170
132
45
150
141
5
144
39
208
122
127
178
9
162
99
34
53
47
142
24
62
49
100
83
179
196
158
84
110
77
28
29
154
85
120
51
201
27
194
135
108
82
88
33
61
163
130
6
186
50
143
133
128
30
92
23
76
188
175
78
12
134
43
31
75
125
63
114
46
167
21
96
104
103
205
155
18
166
4
37
42
206
41
13
26
124
111

> <PUBCHEM_MMFF94_PARTIAL_CHARGES>
23
1 -0.36
10 -0.14
11 -0.15
12 -0.15
13 0.14
14 -0.15
15 -0.15
16 0.78
2 -0.68
22 0.15
23 0.15
27 0.4
28 0.15
29 0.15
3 -0.43
30 0.37
31 0.37
4 -0.57
5 -0.8
6 0.28
7 0.28
8 0.28
9 0.08

> <PUBCHEM_EFFECTIVE_ROTOR_COUNT>
6

> <PUBCHEM_PHARMACOPHORE_FEATURES>
6
1 1 acceptor
1 2 acceptor
1 2 donor
1 4 acceptor
1 5 donor
6 9 10 11 12 14 15 rings

> <PUBCHEM_HEAVY_ATOM_COUNT>
16

> <PUBCHEM_ATOM_DEF_STEREO_COUNT>
0

> <PUBCHEM_ATOM_UDEF_STEREO_COUNT>
1

> <PUBCHEM_BOND_DEF_STEREO_COUNT>
0

> <PUBCHEM_BOND_UDEF_STEREO_COUNT>
0

> <PUBCHEM_ISOTOPIC_ATOM_COUNT>
0

> <PUBCHEM_COMPONENT_COUNT>
1

> <PUBCHEM_CACTVS_TAUTO_COUNT>
2

> <PUBCHEM_CONFORMER_ID>
00002A1700000001

> <PUBCHEM_MMFF94_ENERGY>
43.0166

> <PUBCHEM_FEATURE_SELFOVERLAP>
30.45

> <PUBCHEM_SHAPE_FINGERPRINT>
10354089 29 18408885122881246928
10912923 1 18333448746959675355
114674 6 17631731711266550762
11543360 7 8142073252779487229
12107183 9 17762054750189804601
12236239 1 18186522107134631426
12251169 10 18411140233919369846
12596602 18 18334010592953605707
12670546 56 18342458179550099697
13533116 47 18343018934443112139
13675066 3 17775564260618597973
14115302 16 11743832560548005632
14123238 8 18260266339493963401
14252887 29 17560802160349654986
14366163 111 6771866260117616679
17834072 33 18411139100264378787
18222031 100 15410890743578714943
19050596 39 18410297982205811678
19784866 240 11527680695194115144
200 152 10519988170782547381
20369508 70 13038901110400540478
20432913 95 17775281681819422595
20645477 56 16443066080077593605
20645477 70 18201721781715752674
212847 35 15719389559936844934
22224240 67 18131075883931097576
26918003 58 17989207031711059465
314173 85 15985103029073727981
33824 294 18131635599458036658
3421961 26 18197219363605659714
42 15 18131631205416030317
465052 167 13758063108907231729
5374978 207 18412262839375572600
8272917 22 18410007767213506670

> <PUBCHEM_SHAPE_MULTIPOLES>
300.81
12.37
1.55
1
14.67
0.42
-0.22
-1.42
4.3
-1.64
0.2
0.23
0.04
-0.67

> <PUBCHEM_SHAPE_SELFOVERLAP>
611.399

> <PUBCHEM_SHAPE_VOLUME>
175.1

> <PUBCHEM_COORDINATE_TYPE>
2
5
10

$$$$

