12041
  -OEChem-06261206263D

 16 15  0     0  0  0  0  0  0999 V2000
    0.8002    0.2957   -0.1050 O   0  0  0  0  0  0  0  0  0  0  0  0
   -0.2468   -1.6772    0.5260 O   0  0  0  0  0  0  0  0  0  0  0  0
   -2.2586   -0.2121   -0.9678 O   0  0  0  0  0  0  0  0  0  0  0  0
    2.0924   -0.2976    0.0506 C   0  0  0  0  0  0  0  0  0  0  0  0
    3.1510    0.7299   -0.2889 C   0  0  0  0  0  0  0  0  0  0  0  0
   -0.2381   -0.5156    0.1674 C   0  0  0  0  0  0  0  0  0  0  0  0
   -1.5174    0.2250   -0.1004 C   0  0  0  0  0  0  0  0  0  0  0  0
   -1.7827    1.4519    0.7182 C   0  0  0  0  0  0  0  0  0  0  0  0
    2.2191   -0.6313    1.0868 H   0  0  0  0  0  0  0  0  0  0  0  0
    2.1829   -1.1585   -0.6213 H   0  0  0  0  0  0  0  0  0  0  0  0
    4.1542    0.3087   -0.1799 H   0  0  0  0  0  0  0  0  0  0  0  0
    3.0267    1.0861   -1.3169 H   0  0  0  0  0  0  0  0  0  0  0  0
    3.0619    1.6049    0.3636 H   0  0  0  0  0  0  0  0  0  0  0  0
   -1.6734    1.2177    1.7802 H   0  0  0  0  0  0  0  0  0  0  0  0
   -1.0901    2.2471    0.4325 H   0  0  0  0  0  0  0  0  0  0  0  0
   -2.8072    1.7915    0.5417 H   0  0  0  0  0  0  0  0  0  0  0  0
  1  4  1  0  0  0  0
  1  6  1  0  0  0  0
  2  6  2  0  0  0  0
  3  7  2  0  0  0  0
  4  5  1  0  0  0  0
  4  9  1  0  0  0  0
  4 10  1  0  0  0  0
  5 11  1  0  0  0  0
  5 12  1  0  0  0  0
  5 13  1  0  0  0  0
  6  7  1  0  0  0  0
  7  8  1  0  0  0  0
  8 14  1  0  0  0  0
  8 15  1  0  0  0  0
  8 16  1  0  0  0  0
M  END
> <PUBCHEM_COMPOUND_CID>
12041

> <PUBCHEM_CONFORMER_RMSD>
0.6

> <PUBCHEM_CONFORMER_DIVERSEORDER>
1
11
14
7
9
17
12
2
13
16
8
3
10
6
15
4
5

> <PUBCHEM_MMFF94_PARTIAL_CHARGES>
7
1 -0.43
2 -0.57
3 -0.57
4 0.28
6 0.72
7 0.51
8 0.06

> <PUBCHEM_EFFECTIVE_ROTOR_COUNT>
3

> <PUBCHEM_PHARMACOPHORE_FEATURES>
2
1 2 acceptor
1 3 acceptor

> <PUBCHEM_HEAVY_ATOM_COUNT>
8

> <PUBCHEM_ATOM_DEF_STEREO_COUNT>
0

> <PUBCHEM_ATOM_UDEF_STEREO_COUNT>
0

> <PUBCHEM_BOND_DEF_STEREO_COUNT>
0

> <PUBCHEM_BOND_UDEF_STEREO_COUNT>
0

> <PUBCHEM_ISOTOPIC_ATOM_COUNT>
0

> <PUBCHEM_COMPONENT_COUNT>
1

> <PUBCHEM_CACTVS_TAUTO_COUNT>
2

> <PUBCHEM_CONFORMER_ID>
00002F0900000001

> <PUBCHEM_MMFF94_ENERGY>
6.9193

> <PUBCHEM_FEATURE_SELFOVERLAP>
10.151

> <PUBCHEM_SHAPE_FINGERPRINT>
12897270 3 17603595109662977676
12932764 1 17167581592146765130
14390081 3 18333732395000186952
15310529 11 17240484723326660780
20096714 4 18192427687235209737
20653085 51 17750778008310908064
21040471 1 18413103983161485570
23552423 10 18191023610744511294
23552449 1 18120653526705570042
29004967 10 14979954783285738740
5084963 1 18340216266265677300
5460574 1 9079119964145280540

> <PUBCHEM_SHAPE_MULTIPOLES>
147.03
3.94
1.3
0.79
2.63
0.05
0.04
-1.32
0.6
-0.37
-0.31
-0.29
0
-0.36

> <PUBCHEM_SHAPE_SELFOVERLAP>
273.503

> <PUBCHEM_SHAPE_VOLUME>
92.5

> <PUBCHEM_COORDINATE_TYPE>
2
5
10

$$$$

