12519
  -OEChem-06261207023D

 14 14  0     0  0  0  0  0  0999 V2000
    2.7557   -0.0001   -0.0001 P   0  0  0  0  0  0  0  0  0  0  0  0
    0.9356    0.0002    0.0001 C   0  0  0  0  0  0  0  0  0  0  0  0
    0.2382   -1.2079    0.0001 C   0  0  0  0  0  0  0  0  0  0  0  0
    0.2380    1.2082    0.0001 C   0  0  0  0  0  0  0  0  0  0  0  0
   -1.1566   -1.2081   -0.0001 C   0  0  0  0  0  0  0  0  0  0  0  0
   -1.1569    1.2079    0.0000 C   0  0  0  0  0  0  0  0  0  0  0  0
   -1.8541   -0.0003   -0.0001 C   0  0  0  0  0  0  0  0  0  0  0  0
    0.7612   -2.1613    0.0004 H   0  0  0  0  0  0  0  0  0  0  0  0
    0.7607    2.1619    0.0004 H   0  0  0  0  0  0  0  0  0  0  0  0
   -1.6998   -2.1486   -0.0001 H   0  0  0  0  0  0  0  0  0  0  0  0
   -1.7005    2.1482    0.0000 H   0  0  0  0  0  0  0  0  0  0  0  0
   -2.9402   -0.0004   -0.0001 H   0  0  0  0  0  0  0  0  0  0  0  0
    2.9618    1.0579   -0.9173 H   0  0  0  0  0  0  0  0  0  0  0  0
    2.9613   -1.0577   -0.9181 H   0  0  0  0  0  0  0  0  0  0  0  0
  1  2  1  0  0  0  0
  1 13  1  0  0  0  0
  1 14  1  0  0  0  0
  2  3  2  0  0  0  0
  2  4  1  0  0  0  0
  3  5  1  0  0  0  0
  3  8  1  0  0  0  0
  4  6  2  0  0  0  0
  4  9  1  0  0  0  0
  5  7  2  0  0  0  0
  5 10  1  0  0  0  0
  6  7  1  0  0  0  0
  6 11  1  0  0  0  0
  7 12  1  0  0  0  0
M  END
> <PUBCHEM_COMPOUND_CID>
12519

> <PUBCHEM_CONFORMER_RMSD>
0.4

> <PUBCHEM_CONFORMER_DIVERSEORDER>
1

> <PUBCHEM_MMFF94_PARTIAL_CHARGES>
14
1 -0.21
10 0.15
11 0.15
12 0.15
13 0.1
14 0.1
2 0.01
3 -0.15
4 -0.15
5 -0.15
6 -0.15
7 -0.15
8 0.15
9 0.15

> <PUBCHEM_EFFECTIVE_ROTOR_COUNT>
0

> <PUBCHEM_PHARMACOPHORE_FEATURES>
1
6 2 3 4 5 6 7 rings

> <PUBCHEM_HEAVY_ATOM_COUNT>
7

> <PUBCHEM_ATOM_DEF_STEREO_COUNT>
0

> <PUBCHEM_ATOM_UDEF_STEREO_COUNT>
0

> <PUBCHEM_BOND_DEF_STEREO_COUNT>
0

> <PUBCHEM_BOND_UDEF_STEREO_COUNT>
0

> <PUBCHEM_ISOTOPIC_ATOM_COUNT>
0

> <PUBCHEM_COMPONENT_COUNT>
1

> <PUBCHEM_CACTVS_TAUTO_COUNT>
1

> <PUBCHEM_CONFORMER_ID>
000030E700000001

> <PUBCHEM_MMFF94_ENERGY>
17.5077

> <PUBCHEM_FEATURE_SELFOVERLAP>
5.074

> <PUBCHEM_SHAPE_FINGERPRINT>
16714656 1 18410853261289522614
18185500 45 18341897350809291218
21040471 1 18266458900176052288
23552423 10 18272646874793275398
29004967 10 18340478997962949314
369184 2 18409454686989131218

> <PUBCHEM_SHAPE_MULTIPOLES>
147.91
2.87
1.44
0.63
1.87
0
0
0
0
-0.4
0
0.03
0
0

> <PUBCHEM_SHAPE_SELFOVERLAP>
291.835

> <PUBCHEM_SHAPE_VOLUME>
89.9

> <PUBCHEM_COORDINATE_TYPE>
2
5
10

$$$$

