11227
  -OEChem-06261205253D

 40 39  0     1  0  0  0  0  0999 V2000
    1.9779   -0.3394    0.1635 P   0  0  1  0  0  0  0  0  0  0  0  0
   -0.7761   -0.1197   -0.7922 P   0  0  0  0  0  0  0  0  0  0  0  0
    2.2771   -0.8251   -1.3709 O   0  0  0  0  0  0  0  0  0  0  0  0
   -2.0435    0.7526   -0.2798 O   0  0  0  0  0  0  0  0  0  0  0  0
   -0.9076   -1.3604    0.2452 O   0  0  0  0  0  0  0  0  0  0  0  0
    1.4669   -1.5224    0.9575 O   0  5  0  0  0  0  0  0  0  0  0  0
    3.1405    0.5006    0.6486 O   0  0  0  0  0  0  0  0  0  0  0  0
    0.5868    0.7937    0.0150 N   0  3  0  0  0  0  0  0  0  0  0  0
    1.0386    2.0107   -0.7690 C   0  0  0  0  0  0  0  0  0  0  0  0
    0.1610    1.1923    1.4207 C   0  0  0  0  0  0  0  0  0  0  0  0
   -0.1048    2.9975   -0.8601 C   0  0  0  0  0  0  0  0  0  0  0  0
    1.3321    1.8325    2.1334 C   0  0  0  0  0  0  0  0  0  0  0  0
   -3.3200    0.3189   -0.7265 C   0  0  0  0  0  0  0  0  0  0  0  0
   -1.9037   -2.3275   -0.0549 C   0  0  0  0  0  0  0  0  0  0  0  0
    3.3385   -1.7401   -1.5829 C   0  0  0  0  0  0  0  0  0  0  0  0
   -4.3799    1.2385   -0.1584 C   0  0  0  0  0  0  0  0  0  0  0  0
   -1.8838   -3.4028    1.0106 C   0  0  0  0  0  0  0  0  0  0  0  0
    1.3168    1.6668   -1.7728 H   0  0  0  0  0  0  0  0  0  0  0  0
    1.9338    2.4557   -0.3335 H   0  0  0  0  0  0  0  0  0  0  0  0
   -0.1435    0.2956    1.9731 H   0  0  0  0  0  0  0  0  0  0  0  0
   -0.6954    1.8707    1.3933 H   0  0  0  0  0  0  0  0  0  0  0  0
   -0.4309    3.4011    0.1005 H   0  0  0  0  0  0  0  0  0  0  0  0
   -0.9677    2.6397   -1.4248 H   0  0  0  0  0  0  0  0  0  0  0  0
    0.2542    3.8680   -1.4247 H   0  0  0  0  0  0  0  0  0  0  0  0
    1.8596    2.6273    1.6083 H   0  0  0  0  0  0  0  0  0  0  0  0
    2.0328    1.0976    2.5372 H   0  0  0  0  0  0  0  0  0  0  0  0
    0.9309    2.3198    3.0331 H   0  0  0  0  0  0  0  0  0  0  0  0
   -3.3664    0.3653   -1.8221 H   0  0  0  0  0  0  0  0  0  0  0  0
   -3.6756   -0.6381   -0.4090 H   0  0  0  0  0  0  0  0  0  0  0  0
   -2.9222   -2.0105    0.0225 H   0  0  0  0  0  0  0  0  0  0  0  0
   -1.7232   -2.7804   -1.0372 H   0  0  0  0  0  0  0  0  0  0  0  0
    3.1434   -2.6690   -1.0410 H   0  0  0  0  0  0  0  0  0  0  0  0
    4.2813   -1.3023   -1.2450 H   0  0  0  0  0  0  0  0  0  0  0  0
    3.4071   -1.9567   -2.6516 H   0  0  0  0  0  0  0  0  0  0  0  0
   -5.3770    0.9598   -0.5120 H   0  0  0  0  0  0  0  0  0  0  0  0
   -4.3723    1.2076    0.9365 H   0  0  0  0  0  0  0  0  0  0  0  0
   -4.1839    2.2765   -0.4479 H   0  0  0  0  0  0  0  0  0  0  0  0
   -2.6320   -4.1751    0.8087 H   0  0  0  0  0  0  0  0  0  0  0  0
   -0.8975   -3.8766    1.0581 H   0  0  0  0  0  0  0  0  0  0  0  0
   -2.0764   -2.9736    1.9998 H   0  0  0  0  0  0  0  0  0  0  0  0
  1  3  1  0  0  0  0
  1  6  1  0  0  0  0
  1  7  2  0  0  0  0
  1  8  1  0  0  0  0
  2  4  1  0  0  0  0
  2  5  1  0  0  0  0
  2  8  1  0  0  0  0
  3 15  1  0  0  0  0
  4 13  1  0  0  0  0
  5 14  1  0  0  0  0
  8  9  1  0  0  0  0
  8 10  1  0  0  0  0
  9 11  1  0  0  0  0
  9 18  1  0  0  0  0
  9 19  1  0  0  0  0
 10 12  1  0  0  0  0
 10 20  1  0  0  0  0
 10 21  1  0  0  0  0
 11 22  1  0  0  0  0
 11 23  1  0  0  0  0
 11 24  1  0  0  0  0
 12 25  1  0  0  0  0
 12 26  1  0  0  0  0
 12 27  1  0  0  0  0
 13 16  1  0  0  0  0
 13 28  1  0  0  0  0
 13 29  1  0  0  0  0
 14 17  1  0  0  0  0
 14 30  1  0  0  0  0
 14 31  1  0  0  0  0
 15 32  1  0  0  0  0
 15 33  1  0  0  0  0
 15 34  1  0  0  0  0
 16 35  1  0  0  0  0
 16 36  1  0  0  0  0
 16 37  1  0  0  0  0
 17 38  1  0  0  0  0
 17 39  1  0  0  0  0
 17 40  1  0  0  0  0
M  CHG  2   6  -1   8   1
M  END
> <PUBCHEM_COMPOUND_CID>
11227

> <PUBCHEM_CONFORMER_RMSD>
0.8

> <PUBCHEM_CONFORMER_DIVERSEORDER>
1
9
5
13
4
8
2
12
10
15
6
14
7
16
11
3

> <PUBCHEM_MMFF94_PARTIAL_CHARGES>
13
1 1.67
10 0.5
13 0.28
14 0.28
15 0.28
2 0.55
3 -0.55
4 -0.38
5 -0.38
6 -0.95
7 -0.95
8 -0.86
9 0.5

> <PUBCHEM_EFFECTIVE_ROTOR_COUNT>
9

> <PUBCHEM_PHARMACOPHORE_FEATURES>
2
1 6 acceptor
1 7 acceptor

> <PUBCHEM_HEAVY_ATOM_COUNT>
17

> <PUBCHEM_ATOM_DEF_STEREO_COUNT>
0

> <PUBCHEM_ATOM_UDEF_STEREO_COUNT>
0

> <PUBCHEM_BOND_DEF_STEREO_COUNT>
0

> <PUBCHEM_BOND_UDEF_STEREO_COUNT>
0

> <PUBCHEM_ISOTOPIC_ATOM_COUNT>
0

> <PUBCHEM_COMPONENT_COUNT>
1

> <PUBCHEM_CACTVS_TAUTO_COUNT>
1

> <PUBCHEM_CONFORMER_ID>
00002BDB00000001

> <PUBCHEM_MMFF94_ENERGY>
55.8354

> <PUBCHEM_FEATURE_SELFOVERLAP>
10.158

> <PUBCHEM_SHAPE_FINGERPRINT>
11680611 10 17414741798849719129
116883 192 18195245508331824631
14115302 16 18271801367415295110
14178342 30 18054533342675756609
14251740 79 17542204106024173702
14648413 74 18196933275469738429
15375462 175 18056772150224212853
16945 1 18342452694433627708
18186145 218 18337961185614014301
20511035 2 18189344463389065629
20600515 1 18339653320892163872
20645476 183 17774428482076419799
20871999 31 18271509927771826438
21069387 34 16225764133997951535
21501502 16 18056481642915272621
23419403 2 18042677321947459338
23526113 38 18114188548452491194
23557571 272 18339074892013777254
23559900 14 18410571808642502886
2748010 2 18337958865709337975
3060560 45 18198924650426350845
3250762 1 18195235621042243943
589210 1 18055632807322746525
633830 44 18189623902978812485
81228 2 17826495945604122626
9981440 41 17028287625199077233

> <PUBCHEM_SHAPE_MULTIPOLES>
323.22
5.23
3.4
1.56
2.91
1.18
0.43
0.68
-1.28
0.99
0.35
-1.04
-0.24
1.48

> <PUBCHEM_SHAPE_SELFOVERLAP>
574.821

> <PUBCHEM_SHAPE_VOLUME>
211.1

> <PUBCHEM_COORDINATE_TYPE>
2
5
10

$$$$

