13151
  -OEChem-06261207492D

 17 16  0     1  0  0  0  0  0999 V2000
    6.0010    0.9050    0.0000 Cl  0  0  0  0  0  0  0  0  0  0  0  0
    5.6350   -0.4610    0.0000 Cl  0  0  0  0  0  0  0  0  0  0  0  0
    4.6350    1.2710    0.0000 Cl  0  0  0  0  0  0  0  0  0  0  0  0
    4.2690   -1.0950    0.0000 O   0  0  0  0  0  0  0  0  0  0  0  0
    2.5369   -0.0950    0.0000 N   0  0  0  0  0  0  0  0  0  0  0  0
    3.4030    0.4050    0.0000 C   0  0  3  0  0  0  0  0  0  0  0  0
    4.2690   -0.0950    0.0000 C   0  0  3  0  0  0  0  0  0  0  0  0
    5.1350    0.4050    0.0000 C   0  0  0  0  0  0  0  0  0  0  0  0
    3.4030    1.4050    0.0000 C   0  0  0  0  0  0  0  0  0  0  0  0
    3.4030   -0.2150    0.0000 H   0  0  0  0  0  0  0  0  0  0  0  0
    4.8059   -0.4050    0.0000 H   0  0  0  0  0  0  0  0  0  0  0  0
    4.0230    1.4050    0.0000 H   0  0  0  0  0  0  0  0  0  0  0  0
    3.4030    2.0250    0.0000 H   0  0  0  0  0  0  0  0  0  0  0  0
    2.7830    1.4050    0.0000 H   0  0  0  0  0  0  0  0  0  0  0  0
    2.0000    0.2150    0.0000 H   0  0  0  0  0  0  0  0  0  0  0  0
    2.5369   -0.7150    0.0000 H   0  0  0  0  0  0  0  0  0  0  0  0
    3.7320   -1.4050    0.0000 H   0  0  0  0  0  0  0  0  0  0  0  0
  1  8  1  0  0  0  0
  2  8  1  0  0  0  0
  3  8  1  0  0  0  0
  4  7  1  0  0  0  0
  4 17  1  0  0  0  0
  5  6  1  0  0  0  0
  5 15  1  0  0  0  0
  5 16  1  0  0  0  0
  6  7  1  0  0  0  0
  6  9  1  0  0  0  0
  6 10  1  0  0  0  0
  7  8  1  0  0  0  0
  7 11  1  0  0  0  0
  9 12  1  0  0  0  0
  9 13  1  0  0  0  0
  9 14  1  0  0  0  0
M  END
> <PUBCHEM_COMPOUND_CID>
13151

> <PUBCHEM_COMPOUND_CANONICALIZED>
1

> <PUBCHEM_CACTVS_COMPLEXITY>
92.3

> <PUBCHEM_CACTVS_HBOND_ACCEPTOR>
2

> <PUBCHEM_CACTVS_HBOND_DONOR>
2

> <PUBCHEM_CACTVS_ROTATABLE_BOND>
1

> <PUBCHEM_CACTVS_SUBSKEYS>
AAADccBiIAAGAAAAAAAAAAAAAAAAAAAAAAAAAAAAAAAAAAAAAAAAHgIQCAAACD7hgIYCAABAAgAAAAAAAAAAAAAAAAAAAIAAAwACEAABAAAAQAAAEAAAAAAAAAAAAAAAAAAAAAAAAAAAAAAAAAAAAAAAAA==

> <PUBCHEM_IUPAC_OPENEYE_NAME>
3-amino-1,1,1-trichloro-butan-2-ol

> <PUBCHEM_IUPAC_CAS_NAME>
3-amino-1,1,1-trichloro-2-butanol

> <PUBCHEM_IUPAC_NAME>
3-amino-1,1,1-trichlorobutan-2-ol

> <PUBCHEM_IUPAC_SYSTEMATIC_NAME>
3-azanyl-1,1,1-tris(chloranyl)butan-2-ol

> <PUBCHEM_IUPAC_TRADITIONAL_NAME>
3-amino-1,1,1-trichloro-butan-2-ol

> <PUBCHEM_IUPAC_INCHI>
InChI=1S/C4H8Cl3NO/c1-2(8)3(9)4(5,6)7/h2-3,9H,8H2,1H3

> <PUBCHEM_IUPAC_INCHIKEY>
XQPVQVUHNBBXHI-UHFFFAOYSA-N

> <PUBCHEM_XLOGP3_AA>
1

> <PUBCHEM_EXACT_MASS>
190.967147

> <PUBCHEM_MOLECULAR_FORMULA>
C4H8Cl3NO

> <PUBCHEM_MOLECULAR_WEIGHT>
192.47142

> <PUBCHEM_OPENEYE_CAN_SMILES>
CC(C(C(Cl)(Cl)Cl)O)N

> <PUBCHEM_OPENEYE_ISO_SMILES>
CC(C(C(Cl)(Cl)Cl)O)N

> <PUBCHEM_CACTVS_TPSA>
46.2

> <PUBCHEM_MONOISOTOPIC_WEIGHT>
190.967147

> <PUBCHEM_TOTAL_CHARGE>
0

> <PUBCHEM_HEAVY_ATOM_COUNT>
9

> <PUBCHEM_ATOM_DEF_STEREO_COUNT>
0

> <PUBCHEM_ATOM_UDEF_STEREO_COUNT>
2

> <PUBCHEM_BOND_DEF_STEREO_COUNT>
0

> <PUBCHEM_BOND_UDEF_STEREO_COUNT>
0

> <PUBCHEM_ISOTOPIC_ATOM_COUNT>
0

> <PUBCHEM_COMPONENT_COUNT>
1

> <PUBCHEM_CACTVS_TAUTO_COUNT>
1

> <PUBCHEM_COORDINATE_TYPE>
1
5
255

> <PUBCHEM_BONDANNOTATIONS>
7  4  3
6  5  3

$$$$

