14416
  -OEChem-06241222433D

 50 51  0     0  0  0  0  0  0999 V2000
    1.0770   -0.0528    0.4167 O   0  0  0  0  0  0  0  0  0  0  0  0
   -1.0749   -0.3414    1.9721 O   0  0  0  0  0  0  0  0  0  0  0  0
    0.0663   -1.8270   -0.6411 O   0  0  0  0  0  0  0  0  0  0  0  0
    4.7779   -0.0381   -0.0621 N   0  3  0  0  0  0  0  0  0  0  0  0
    3.4274    0.4323    0.4586 C   0  0  0  0  0  0  0  0  0  0  0  0
    5.0686   -1.4341    0.4700 C   0  0  0  0  0  0  0  0  0  0  0  0
    4.7519   -0.0704   -1.5834 C   0  0  0  0  0  0  0  0  0  0  0  0
    5.8636    0.9197    0.4067 C   0  0  0  0  0  0  0  0  0  0  0  0
    2.3453   -0.5071   -0.0363 C   0  0  0  0  0  0  0  0  0  0  0  0
    6.4120   -1.8960   -0.0509 C   0  0  0  0  0  0  0  0  0  0  0  0
   -1.3076   -0.1937    0.5565 C   0  0  0  0  0  0  0  0  0  0  0  0
   -0.0054   -0.8121    0.0416 C   0  0  0  0  0  0  0  0  0  0  0  0
   -1.4344    1.2911    0.2082 C   0  0  0  0  0  0  0  0  0  0  0  0
   -2.5665   -0.9603    0.1441 C   0  0  0  0  0  0  0  0  0  0  0  0
   -1.9743    2.1432    1.1439 C   0  0  0  0  0  0  0  0  0  0  0  0
   -2.9307   -0.9629   -1.1826 C   0  0  0  0  0  0  0  0  0  0  0  0
   -1.0030    1.7172   -1.0268 C   0  0  0  0  0  0  0  0  0  0  0  0
   -3.2850   -1.6178    1.1158 C   0  0  0  0  0  0  0  0  0  0  0  0
   -2.0897    3.4966    0.8267 C   0  0  0  0  0  0  0  0  0  0  0  0
   -4.0778   -1.6618   -1.5587 C   0  0  0  0  0  0  0  0  0  0  0  0
   -1.1184    3.0707   -1.3440 C   0  0  0  0  0  0  0  0  0  0  0  0
   -4.4321   -2.3168    0.7397 C   0  0  0  0  0  0  0  0  0  0  0  0
   -1.6618    3.9604   -0.4171 C   0  0  0  0  0  0  0  0  0  0  0  0
   -4.8284   -2.3387   -0.5976 C   0  0  0  0  0  0  0  0  0  0  0  0
    3.2548    1.4563    0.1059 H   0  0  0  0  0  0  0  0  0  0  0  0
    3.4685    0.4557    1.5543 H   0  0  0  0  0  0  0  0  0  0  0  0
    4.3138   -2.1349    0.1078 H   0  0  0  0  0  0  0  0  0  0  0  0
    5.0487   -1.3983    1.5646 H   0  0  0  0  0  0  0  0  0  0  0  0
    4.2450    0.8316   -1.9414 H   0  0  0  0  0  0  0  0  0  0  0  0
    5.7773   -0.0618   -1.9652 H   0  0  0  0  0  0  0  0  0  0  0  0
    4.2386   -0.9709   -1.9321 H   0  0  0  0  0  0  0  0  0  0  0  0
    5.9721    0.8230    1.4910 H   0  0  0  0  0  0  0  0  0  0  0  0
    6.8050    0.7083   -0.1061 H   0  0  0  0  0  0  0  0  0  0  0  0
    5.5483    1.9370    0.1528 H   0  0  0  0  0  0  0  0  0  0  0  0
    2.3031   -0.5467   -1.1283 H   0  0  0  0  0  0  0  0  0  0  0  0
    2.4671   -1.5173    0.3607 H   0  0  0  0  0  0  0  0  0  0  0  0
    6.5867   -2.9194    0.3036 H   0  0  0  0  0  0  0  0  0  0  0  0
    6.4717   -1.9439   -1.1410 H   0  0  0  0  0  0  0  0  0  0  0  0
    7.2499   -1.3069    0.3306 H   0  0  0  0  0  0  0  0  0  0  0  0
   -2.3271    1.8013    2.1116 H   0  0  0  0  0  0  0  0  0  0  0  0
   -2.3548   -0.4673   -1.9548 H   0  0  0  0  0  0  0  0  0  0  0  0
   -0.5736    1.0466   -1.7641 H   0  0  0  0  0  0  0  0  0  0  0  0
   -3.0094   -1.6221    2.1646 H   0  0  0  0  0  0  0  0  0  0  0  0
   -0.3974    0.3012    2.2459 H   0  0  0  0  0  0  0  0  0  0  0  0
   -2.5160    4.1889    1.5469 H   0  0  0  0  0  0  0  0  0  0  0  0
   -4.3834   -1.6838   -2.6007 H   0  0  0  0  0  0  0  0  0  0  0  0
   -0.7844    3.4322   -2.3121 H   0  0  0  0  0  0  0  0  0  0  0  0
   -5.0172   -2.8442    1.4876 H   0  0  0  0  0  0  0  0  0  0  0  0
   -1.7521    5.0141   -0.6643 H   0  0  0  0  0  0  0  0  0  0  0  0
   -5.7208   -2.8840   -0.8906 H   0  0  0  0  0  0  0  0  0  0  0  0
  1  9  1  0  0  0  0
  1 12  1  0  0  0  0
  2 11  1  0  0  0  0
  2 44  1  0  0  0  0
  3 12  2  0  0  0  0
  4  5  1  0  0  0  0
  4  6  1  0  0  0  0
  4  7  1  0  0  0  0
  4  8  1  0  0  0  0
  5  9  1  0  0  0  0
  5 25  1  0  0  0  0
  5 26  1  0  0  0  0
  6 10  1  0  0  0  0
  6 27  1  0  0  0  0
  6 28  1  0  0  0  0
  7 29  1  0  0  0  0
  7 30  1  0  0  0  0
  7 31  1  0  0  0  0
  8 32  1  0  0  0  0
  8 33  1  0  0  0  0
  8 34  1  0  0  0  0
  9 35  1  0  0  0  0
  9 36  1  0  0  0  0
 10 37  1  0  0  0  0
 10 38  1  0  0  0  0
 10 39  1  0  0  0  0
 11 12  1  0  0  0  0
 11 13  1  0  0  0  0
 11 14  1  0  0  0  0
 13 15  2  0  0  0  0
 13 17  1  0  0  0  0
 14 16  2  0  0  0  0
 14 18  1  0  0  0  0
 15 19  1  0  0  0  0
 15 40  1  0  0  0  0
 16 20  1  0  0  0  0
 16 41  1  0  0  0  0
 17 21  2  0  0  0  0
 17 42  1  0  0  0  0
 18 22  2  0  0  0  0
 18 43  1  0  0  0  0
 19 23  2  0  0  0  0
 19 45  1  0  0  0  0
 20 24  2  0  0  0  0
 20 46  1  0  0  0  0
 21 23  1  0  0  0  0
 21 47  1  0  0  0  0
 22 24  1  0  0  0  0
 22 48  1  0  0  0  0
 23 49  1  0  0  0  0
 24 50  1  0  0  0  0
M  CHG  1   4   1
M  END
> <PUBCHEM_COMPOUND_CID>
14416

> <PUBCHEM_CONFORMER_RMSD>
0.8

> <PUBCHEM_CONFORMER_DIVERSEORDER>
1
63
183
207
75
105
136
138
97
128
112
210
187
227
91
95
219
46
160
188
134
253
52
217
26
23
263
137
103
168
27
176
156
172
222
116
182
143
161
199
261
120
29
211
266
55
59
242
84
141
258
225
155
230
248
107
246
200
267
89
250
229
76
17
101
40
68
5
34
257
175
254
32
152
25
228
177
142
106
31
244
99
237
9
118
131
4
54
205
260
94
122
144
216
53
181
208
153
265
165
90
213
224
69
218
47
179
146
104
114
111
39
127
19
236
22
64
193
92
154
126
129
81
18
167
170
13
185
110
30
62
164
83
189
264
221
243
65
60
247
157
108
192
163
14
80
270
35
240
140
195
241
203
215
197
37
235
33
123
252
98
191
214
72
73
15
113
45
139
66
190
43
24
262
145
79
102
87
245
77
41
162
147
173
212
20
149
86
223
117
124
135
158
38
88
232
184
201
115
249
166
194
12
36
100
186
151
180
67
204
70
209
174
171
11
58
93
85
8
82
74
150
256
71
50
206
268
44
130
7
226
56
49
21
239
238
231
202
6
259
10
51
78
121
132
61
251
233
220
169
48
16
28
42
96
133
125
269
3
198
148
234
109
159
57
178
2
119
255
196

> <PUBCHEM_MMFF94_PARTIAL_CHARGES>
34
1 -0.43
11 0.63
12 0.66
13 -0.14
14 -0.14
15 -0.15
16 -0.15
17 -0.15
18 -0.15
19 -0.15
2 -0.68
20 -0.15
21 -0.15
22 -0.15
23 -0.15
24 -0.15
3 -0.57
4 -1.01
40 0.15
41 0.15
42 0.15
43 0.15
44 0.4
45 0.15
46 0.15
47 0.15
48 0.15
49 0.15
5 0.5
50 0.15
6 0.5
7 0.5
8 0.5
9 0.28

> <PUBCHEM_EFFECTIVE_ROTOR_COUNT>
8

> <PUBCHEM_PHARMACOPHORE_FEATURES>
6
1 2 acceptor
1 2 donor
1 3 acceptor
1 4 cation
6 13 15 17 19 21 23 rings
6 14 16 18 20 22 24 rings

> <PUBCHEM_HEAVY_ATOM_COUNT>
24

> <PUBCHEM_ATOM_DEF_STEREO_COUNT>
0

> <PUBCHEM_ATOM_UDEF_STEREO_COUNT>
0

> <PUBCHEM_BOND_DEF_STEREO_COUNT>
0

> <PUBCHEM_BOND_UDEF_STEREO_COUNT>
0

> <PUBCHEM_ISOTOPIC_ATOM_COUNT>
0

> <PUBCHEM_COMPONENT_COUNT>
1

> <PUBCHEM_CACTVS_TAUTO_COUNT>
1

> <PUBCHEM_CONFORMER_ID>
0000385000000001

> <PUBCHEM_MMFF94_ENERGY>
82.9121

> <PUBCHEM_FEATURE_SELFOVERLAP>
30.446

> <PUBCHEM_SHAPE_FINGERPRINT>
10670039 82 18269820000897833084
11045515 52 18271813363311589941
11101153 10 18340761538872829964
11265709 11 18339918217469146289
11545043 162 18115034116788208914
11578080 2 17460848912474713741
12107183 9 17622733433196440306
12166972 35 17560516201179362942
12403259 226 18334300846827820184
12403260 363 18413110572147654854
12788726 201 18271820033148056499
13004483 165 18336553720119409759
13073987 5 18408889560183798682
13134695 92 18120094975347409549
13583140 156 17604162535679287390
13911987 19 18057873654622154950
14118638 360 18413109464447051522
14347332 77 18410298042604775374
14508225 48 18340495486569622373
14713325 29 18335984288875598896
14840074 17 18042116566347942806
14910302 57 17895739816272051118
14955137 171 18192988219628926347
15131766 46 15478961469462207357
15849732 13 18041273289192241783
16087824 20 18338517569391400805
16992727 255 18059027206377743317
17349148 13 17703783726283820046
17357779 13 18336278842344432053
17844677 252 18408881854901465722
1813 80 18116419372036072431
18222031 100 18264499386157182499
18927931 339 18409722984711304982
200 152 18342461404501028147
20600515 1 18191005829864690319
21202864 24 18263070184471481417
21236236 1 18409449219274412144
21424621 283 11455628607236085759
23175994 123 18271247093601701575
23402539 116 18412262822422556707
23557571 272 18410012147752815431
23558518 356 18057597861881914914
23559900 14 17702950219165575794
283562 15 18413112766222055995
312423 11 18272359876720458020
44062 13 18264202702948982238
497634 4 17531516625384202512
508706 21 18267008626532363910
5104073 3 18336834190854339738
5924683 9 18411983598140395956
6786 2 17539676316112528449
7399639 24 18115320968831748424
81228 2 18339921632131696505

> <PUBCHEM_SHAPE_MULTIPOLES>
471.32
12.06
3.86
1.37
21.99
4.17
-0.12
-9.08
-0.82
-4.74
-0.28
-0.77
0.07
-0.32

> <PUBCHEM_SHAPE_SELFOVERLAP>
987.642

> <PUBCHEM_SHAPE_VOLUME>
267.4

> <PUBCHEM_COORDINATE_TYPE>
2
5
10

$$$$

