9921
  -OEChem-06261204113D

 32 35  0     0  0  0  0  0  0999 V2000
    2.3455   -2.9421    0.0016 F   0  0  0  0  0  0  0  0  0  0  0  0
    0.4300   -0.9928    0.0004 N   0  0  0  0  0  0  0  0  0  0  0  0
   -0.1912    1.3186    0.0006 C   0  0  0  0  0  0  0  0  0  0  0  0
   -0.5360   -0.0453    0.0005 C   0  0  0  0  0  0  0  0  0  0  0  0
    1.1642    1.6653    0.0004 C   0  0  0  0  0  0  0  0  0  0  0  0
   -1.9055   -0.3922    0.0003 C   0  0  0  0  0  0  0  0  0  0  0  0
    2.1532    0.6791    0.0000 C   0  0  0  0  0  0  0  0  0  0  0  0
   -2.9042    0.6157    0.0003 C   0  0  0  0  0  0  0  0  0  0  0  0
    1.7345   -0.6586    0.0001 C   0  0  0  0  0  0  0  0  0  0  0  0
   -1.1816    2.3086    0.0009 C   0  0  0  0  0  0  0  0  0  0  0  0
   -2.5266    1.9599    0.0006 C   0  0  0  0  0  0  0  0  0  0  0  0
    1.5673    3.1144   -0.0011 C   0  0  0  0  0  0  0  0  0  0  0  0
    3.5226    0.9986   -0.0005 C   0  0  0  0  0  0  0  0  0  0  0  0
   -2.3325   -1.7374   -0.0002 C   0  0  0  0  0  0  0  0  0  0  0  0
    2.7112   -1.6510   -0.0001 C   0  0  0  0  0  0  0  0  0  0  0  0
   -4.2637    0.2611   -0.0002 C   0  0  0  0  0  0  0  0  0  0  0  0
    4.4801   -0.0113   -0.0009 C   0  0  0  0  0  0  0  0  0  0  0  0
   -3.6877   -2.0751   -0.0010 C   0  0  0  0  0  0  0  0  0  0  0  0
    4.0730   -1.3392   -0.0005 C   0  0  0  0  0  0  0  0  0  0  0  0
   -4.6525   -1.0763   -0.0011 C   0  0  0  0  0  0  0  0  0  0  0  0
   -0.9670    3.3714    0.0295 H   0  0  0  0  0  0  0  0  0  0  0  0
   -3.2748    2.7495    0.0068 H   0  0  0  0  0  0  0  0  0  0  0  0
    2.5276    3.3071   -0.4842 H   0  0  0  0  0  0  0  0  0  0  0  0
    0.8932    3.7367   -0.5970 H   0  0  0  0  0  0  0  0  0  0  0  0
    1.6024    3.4987    1.0232 H   0  0  0  0  0  0  0  0  0  0  0  0
    3.9035    2.0131    0.0282 H   0  0  0  0  0  0  0  0  0  0  0  0
   -1.6089   -2.5507   -0.0003 H   0  0  0  0  0  0  0  0  0  0  0  0
   -5.0357    1.0283   -0.0003 H   0  0  0  0  0  0  0  0  0  0  0  0
    5.5372    0.2362    0.0053 H   0  0  0  0  0  0  0  0  0  0  0  0
   -3.9857   -3.1195   -0.0016 H   0  0  0  0  0  0  0  0  0  0  0  0
    4.8111   -2.1357    0.0011 H   0  0  0  0  0  0  0  0  0  0  0  0
   -5.7067   -1.3365   -0.0017 H   0  0  0  0  0  0  0  0  0  0  0  0
  1 15  1  0  0  0  0
  2  4  1  0  0  0  0
  2  9  2  0  0  0  0
  3  4  2  0  0  0  0
  3  5  1  0  0  0  0
  3 10  1  0  0  0  0
  4  6  1  0  0  0  0
  5  7  2  0  0  0  0
  5 12  1  0  0  0  0
  6  8  1  0  0  0  0
  6 14  2  0  0  0  0
  7  9  1  0  0  0  0
  7 13  1  0  0  0  0
  8 11  1  0  0  0  0
  8 16  2  0  0  0  0
  9 15  1  0  0  0  0
 10 11  2  0  0  0  0
 10 21  1  0  0  0  0
 11 22  1  0  0  0  0
 12 23  1  0  0  0  0
 12 24  1  0  0  0  0
 12 25  1  0  0  0  0
 13 17  2  0  0  0  0
 13 26  1  0  0  0  0
 14 18  1  0  0  0  0
 14 27  1  0  0  0  0
 15 19  2  0  0  0  0
 16 20  1  0  0  0  0
 16 28  1  0  0  0  0
 17 19  1  0  0  0  0
 17 29  1  0  0  0  0
 18 20  2  0  0  0  0
 18 30  1  0  0  0  0
 19 31  1  0  0  0  0
 20 32  1  0  0  0  0
M  END
> <PUBCHEM_COMPOUND_CID>
9921

> <PUBCHEM_CONFORMER_RMSD>
0.6

> <PUBCHEM_CONFORMER_DIVERSEORDER>
1

> <PUBCHEM_MMFF94_PARTIAL_CHARGES>
25
1 -0.19
10 -0.15
11 -0.15
12 0.14
13 -0.15
14 -0.15
15 0.19
16 -0.15
17 -0.15
18 -0.15
19 -0.15
2 -0.62
20 -0.15
21 0.15
22 0.15
26 0.15
27 0.15
28 0.15
29 0.15
30 0.15
31 0.15
32 0.15
4 0.31
5 -0.14
9 0.31

> <PUBCHEM_EFFECTIVE_ROTOR_COUNT>
0

> <PUBCHEM_PHARMACOPHORE_FEATURES>
5
1 2 acceptor
6 2 3 4 5 7 9 rings
6 3 4 6 8 10 11 rings
6 6 8 14 16 18 20 rings
6 7 9 13 15 17 19 rings

> <PUBCHEM_HEAVY_ATOM_COUNT>
20

> <PUBCHEM_ATOM_DEF_STEREO_COUNT>
0

> <PUBCHEM_ATOM_UDEF_STEREO_COUNT>
0

> <PUBCHEM_BOND_DEF_STEREO_COUNT>
0

> <PUBCHEM_BOND_UDEF_STEREO_COUNT>
0

> <PUBCHEM_ISOTOPIC_ATOM_COUNT>
0

> <PUBCHEM_COMPONENT_COUNT>
1

> <PUBCHEM_CACTVS_TAUTO_COUNT>
1

> <PUBCHEM_CONFORMER_ID>
000026C100000001

> <PUBCHEM_MMFF94_ENERGY>
73.0874

> <PUBCHEM_FEATURE_SELFOVERLAP>
25.458

> <PUBCHEM_SHAPE_FINGERPRINT>
10616163 171 18408882957743210031
10967382 1 18410856529627766020
11471102 20 18411421670088439380
11578080 2 17386873641731036249
11806522 49 18413108342453057684
12506688 2 18334574650634140000
12553582 1 18410301306289173574
13140716 1 17977955583516743618
138480 1 18338516322452913221
14178342 30 18337965592155780976
14223421 5 18410579469840856680
14790565 3 17619342109186294133
14866123 147 17326046755268369923
15042514 8 18050570934945697570
15196674 1 18410575097558673220
15352361 1 18410575093305936447
15442244 35 18337670918385587345
15536298 74 18334858264494085856
16945 1 18410855451554441216
17492 89 18339080505125408027
17804303 29 18408600366301712701
1813 80 17489586757632181133
19141452 34 18334855009573416215
19591789 44 18049440348849570982
200 152 18186525376079432407
20261772 1 17967535631705283775
20645477 70 18198067984522952719
21267235 1 18410565197722580342
21421861 104 17986677167230438994
21501502 16 18411412929708906468
221490 88 18269549442767775411
2255824 54 18269270158467336092
2334 1 18338517546744640392
23366157 5 18059295336294984756
23402539 116 18410863165299640447
23463225 33 18410009905859176821
23557571 272 18187920750792725310
23559900 14 18409737239681295608
2748010 2 18336834216012407972
2871803 45 18413393133049744206
335352 9 18410574033034687605
34934 24 18339368564307218426
350125 39 18410571756153731913
4214541 1 18338799017162607169
4280585 95 17615113826254087558
4921388 177 16128366031240045467
5104073 3 18408886256314666632
7364860 26 18336829671837119720
8809292 202 18271804592830148347
9709674 26 18411412921193123723
9981440 41 17404302897716883216

> <PUBCHEM_SHAPE_MULTIPOLES>
399.34
8.37
2.93
0.61
1.25
0.53
0
-3.44
0
-0.55
0
0.01
0.02
0

> <PUBCHEM_SHAPE_SELFOVERLAP>
920.645

> <PUBCHEM_SHAPE_VOLUME>
208.1

> <PUBCHEM_COORDINATE_TYPE>
2
5
10

$$$$

