13329
  -OEChem-06261209003D

 55 57  0     1  0  0  0  0  0999 V2000
   -4.4433    1.8351   -0.1304 O   0  0  0  0  0  0  0  0  0  0  0  0
    0.0230    0.3010    1.0591 N   0  0  0  0  0  0  0  0  0  0  0  0
    2.7489   -0.1656    0.3445 N   0  0  0  0  0  0  0  0  0  0  0  0
    0.8273   -0.6786    1.8001 C   0  0  0  0  0  0  0  0  0  0  0  0
    0.4364    0.3236   -0.3491 C   0  0  0  0  0  0  0  0  0  0  0  0
    2.3154   -0.3263    1.7381 C   0  0  0  0  0  0  0  0  0  0  0  0
    1.9119    0.7082   -0.4834 C   0  0  0  0  0  0  0  0  0  0  0  0
   -1.4006   -0.0148    1.1711 C   0  0  0  0  0  0  0  0  0  0  0  0
   -2.2357    1.0588    0.4723 C   0  0  0  0  0  0  0  0  0  0  0  0
   -3.7478    0.7969    0.5631 C   0  0  2  0  0  0  0  0  0  0  0  0
    4.1137   -0.2906    0.0618 C   0  0  0  0  0  0  0  0  0  0  0  0
   -4.1770   -0.5260   -0.0274 C   0  0  0  0  0  0  0  0  0  0  0  0
    4.8358    0.7717   -0.5177 C   0  0  0  0  0  0  0  0  0  0  0  0
    4.8071   -1.4837    0.3478 C   0  0  0  0  0  0  0  0  0  0  0  0
    6.1961    0.6460   -0.8001 C   0  0  0  0  0  0  0  0  0  0  0  0
   -4.5262   -0.5896   -1.3664 C   0  0  0  0  0  0  0  0  0  0  0  0
   -4.2132   -1.6498    0.7817 C   0  0  0  0  0  0  0  0  0  0  0  0
    6.1673   -1.6095    0.0655 C   0  0  0  0  0  0  0  0  0  0  0  0
   -4.0902    3.1140    0.3712 C   0  0  0  0  0  0  0  0  0  0  0  0
    6.8618   -0.5446   -0.5084 C   0  0  0  0  0  0  0  0  0  0  0  0
    6.9393    1.7846   -1.4123 C   0  0  0  0  0  0  0  0  0  0  0  0
   -4.9227   -1.8109   -1.9115 C   0  0  0  0  0  0  0  0  0  0  0  0
   -4.6096   -2.8711    0.2368 C   0  0  0  0  0  0  0  0  0  0  0  0
   -4.8533    4.1725   -0.3964 C   0  0  0  0  0  0  0  0  0  0  0  0
   -4.9644   -2.9515   -1.1098 C   0  0  0  0  0  0  0  0  0  0  0  0
    0.5234   -0.6939    2.8539 H   0  0  0  0  0  0  0  0  0  0  0  0
    0.6732   -1.6901    1.4004 H   0  0  0  0  0  0  0  0  0  0  0  0
    0.2646   -0.6523   -0.8229 H   0  0  0  0  0  0  0  0  0  0  0  0
   -0.0988    1.0748   -0.9340 H   0  0  0  0  0  0  0  0  0  0  0  0
    2.8749   -1.1194    2.2474 H   0  0  0  0  0  0  0  0  0  0  0  0
    2.5060    0.6064    2.2847 H   0  0  0  0  0  0  0  0  0  0  0  0
    2.1918    0.6224   -1.5409 H   0  0  0  0  0  0  0  0  0  0  0  0
    2.0506    1.7538   -0.1793 H   0  0  0  0  0  0  0  0  0  0  0  0
   -1.5888   -1.0040    0.7401 H   0  0  0  0  0  0  0  0  0  0  0  0
   -1.6904   -0.0508    2.2287 H   0  0  0  0  0  0  0  0  0  0  0  0
   -1.9570    1.9998    0.9555 H   0  0  0  0  0  0  0  0  0  0  0  0
   -2.0023    1.1584   -0.5917 H   0  0  0  0  0  0  0  0  0  0  0  0
   -4.0682    0.8303    1.6134 H   0  0  0  0  0  0  0  0  0  0  0  0
    4.3433    1.7155   -0.7409 H   0  0  0  0  0  0  0  0  0  0  0  0
    4.2838   -2.3321    0.7832 H   0  0  0  0  0  0  0  0  0  0  0  0
   -4.4872    0.2796   -2.0161 H   0  0  0  0  0  0  0  0  0  0  0  0
   -3.9441   -1.5984    1.8328 H   0  0  0  0  0  0  0  0  0  0  0  0
    6.6851   -2.5373    0.2902 H   0  0  0  0  0  0  0  0  0  0  0  0
   -4.3175    3.1848    1.4403 H   0  0  0  0  0  0  0  0  0  0  0  0
   -3.0412    3.3566    0.1928 H   0  0  0  0  0  0  0  0  0  0  0  0
    7.9217   -0.6551   -0.7220 H   0  0  0  0  0  0  0  0  0  0  0  0
    6.3095    2.3236   -2.1283 H   0  0  0  0  0  0  0  0  0  0  0  0
    7.8215    1.4367   -1.9605 H   0  0  0  0  0  0  0  0  0  0  0  0
    7.2658    2.4818   -0.6344 H   0  0  0  0  0  0  0  0  0  0  0  0
   -5.1954   -1.8746   -2.9608 H   0  0  0  0  0  0  0  0  0  0  0  0
   -4.6429   -3.7592    0.8610 H   0  0  0  0  0  0  0  0  0  0  0  0
   -4.6303    4.1112   -1.4670 H   0  0  0  0  0  0  0  0  0  0  0  0
   -4.6009    5.1752   -0.0399 H   0  0  0  0  0  0  0  0  0  0  0  0
   -5.9325    4.0221   -0.2881 H   0  0  0  0  0  0  0  0  0  0  0  0
   -5.2723   -3.9025   -1.5343 H   0  0  0  0  0  0  0  0  0  0  0  0
  1 10  1  0  0  0  0
  1 19  1  0  0  0  0
  2  4  1  0  0  0  0
  2  5  1  0  0  0  0
  2  8  1  0  0  0  0
  3  6  1  0  0  0  0
  3  7  1  0  0  0  0
  3 11  1  0  0  0  0
  4  6  1  0  0  0  0
  4 26  1  0  0  0  0
  4 27  1  0  0  0  0
  5  7  1  0  0  0  0
  5 28  1  0  0  0  0
  5 29  1  0  0  0  0
  6 30  1  0  0  0  0
  6 31  1  0  0  0  0
  7 32  1  0  0  0  0
  7 33  1  0  0  0  0
  8  9  1  0  0  0  0
  8 34  1  0  0  0  0
  8 35  1  0  0  0  0
  9 10  1  0  0  0  0
  9 36  1  0  0  0  0
  9 37  1  0  0  0  0
 10 12  1  0  0  0  0
 10 38  1  0  0  0  0
 11 13  1  0  0  0  0
 11 14  2  0  0  0  0
 12 16  2  0  0  0  0
 12 17  1  0  0  0  0
 13 15  2  0  0  0  0
 13 39  1  0  0  0  0
 14 18  1  0  0  0  0
 14 40  1  0  0  0  0
 15 20  1  0  0  0  0
 15 21  1  0  0  0  0
 16 22  1  0  0  0  0
 16 41  1  0  0  0  0
 17 23  2  0  0  0  0
 17 42  1  0  0  0  0
 18 20  2  0  0  0  0
 18 43  1  0  0  0  0
 19 24  1  0  0  0  0
 19 44  1  0  0  0  0
 19 45  1  0  0  0  0
 20 46  1  0  0  0  0
 21 47  1  0  0  0  0
 21 48  1  0  0  0  0
 21 49  1  0  0  0  0
 22 25  2  0  0  0  0
 22 50  1  0  0  0  0
 23 25  1  0  0  0  0
 23 51  1  0  0  0  0
 24 52  1  0  0  0  0
 24 53  1  0  0  0  0
 24 54  1  0  0  0  0
 25 55  1  0  0  0  0
M  END
> <PUBCHEM_COMPOUND_CID>
13329

> <PUBCHEM_CONFORMER_RMSD>
0.8

> <PUBCHEM_CONFORMER_DIVERSEORDER>
3
358
392
36
457
91
288
219
459
388
386
440
126
425
133
266
234
407
387
437
18
371
132
291
337
381
356
433
143
95
99
287
360
410
164
218
405
300
35
454
394
293
30
55
458
34
223
124
431
183
31
156
333
349
81
393
243
419
398
194
463
262
122
174
391
332
171
270
10
412
368
134
389
232
434
67
265
367
163
197
59
244
303
58
184
447
4
221
207
140
396
329
118
449
69
237
128
413
416
418
13
138
186
86
441
257
453
62
302
75
445
212
23
351
402
14
264
80
263
61
359
335
11
338
272
176
78
17
377
452
52
417
384
354
127
161
414
444
280
48
49
153
439
60
233
375
119
227
173
373
361
115
7
101
322
435
446
125
315
261
372
187
317
343
157
83
46
123
24
318
397
63
256
230
336
210
242
21
200
148
321
190
420
84
121
42
235
12
365
206
401
316
357
105
73
112
160
364
146
136
423
90
403
168
409
38
428
189
385
195
426
8
193
144
82
225
53
102
350
120
348
363
22
421
462
159
320
404
169
149
238
253
415
142
179
399
341
450
366
76
323
424
217
100
208
438
114
427
29
430
98
64
203
211
50
178
40
65
383
248
330
268
205
344
301
259
97
226
158
436
290
106
70
274
93
229
26
113
147
130
154
68
25
41
376
6
319
66
276
165
395
27
325
43
137
191
328
313
199
175
273
252
104
170
277
267
299
180
155
460
331
380
284
311
96
461
408
209
116
378
214
79
32
251
304
28
249
406
260
139
250
448
44
87
108
162
374
110
324
443
294
269
192
245
74
312
255
340
334
47
429
309
72
177
111
400
33
390
51
220
151
306
254
198
285
241
289
39
353
201
297
228
369
16
456
152
213
131
314
117
71
339
56
92
298
278
216
279
135
45
150
283
411
188
202
352
141
432
370
88
103
292
20
295
307
345
305
422
181
239
347
89
94
382
109
455
215
282
85
57
275
296
204
362
451
145
271
281
442
167
9
258
379
286
196
172
19
224
37
236
185
107
15
240
129
5
355
54
247
77
182
326
327
346
246
166
222
231
310
342
2
308
1

> <PUBCHEM_MMFF94_PARTIAL_CHARGES>
32
1 -0.56
10 0.42
11 0.1
12 -0.14
13 -0.15
14 -0.15
15 -0.14
16 -0.15
17 -0.15
18 -0.15
19 0.28
2 -0.81
20 -0.15
21 0.14
22 -0.15
23 -0.15
25 -0.15
3 -0.84
39 0.15
4 0.27
40 0.15
41 0.15
42 0.15
43 0.15
46 0.15
5 0.27
50 0.15
51 0.15
55 0.15
6 0.37
7 0.37
8 0.27

> <PUBCHEM_EFFECTIVE_ROTOR_COUNT>
8.2

> <PUBCHEM_PHARMACOPHORE_FEATURES>
6
1 1 acceptor
1 2 cation
1 3 cation
6 11 13 14 15 18 20 rings
6 12 16 17 22 23 25 rings
6 2 3 4 5 6 7 rings

> <PUBCHEM_HEAVY_ATOM_COUNT>
25

> <PUBCHEM_ATOM_DEF_STEREO_COUNT>
0

> <PUBCHEM_ATOM_UDEF_STEREO_COUNT>
1

> <PUBCHEM_BOND_DEF_STEREO_COUNT>
0

> <PUBCHEM_BOND_UDEF_STEREO_COUNT>
0

> <PUBCHEM_ISOTOPIC_ATOM_COUNT>
0

> <PUBCHEM_COMPONENT_COUNT>
1

> <PUBCHEM_CACTVS_TAUTO_COUNT>
1

> <PUBCHEM_CONFORMER_ID>
0000341100000003

> <PUBCHEM_MMFF94_ENERGY>
80.4343

> <PUBCHEM_FEATURE_SELFOVERLAP>
30.449

> <PUBCHEM_SHAPE_FINGERPRINT>
10595046 47 18342173354488225266
10763959 59 14692852489285527350
11101153 10 18269832012898609821
11524674 6 16081085966210027663
11545043 162 17821736034833562507
11796584 16 18114744966156495498
12236239 1 18411978066517761972
13673619 4 17604429583818776595
13690498 29 18334861585099586239
13782708 43 17749392546788556694
13785724 45 10086274815035155536
14202776 33 18410571764769917765
14528608 73 18202280295542606530
15183329 4 17846785117829097842
15250474 111 18270695271302539466
1577012 14 18343297085753263404
15876981 60 18341607118737877325
16992828 155 17630049493147314349
17780758 139 15864344727947548555
17844677 252 18260267421520098408
18643901 69 17894345545866519487
18927931 339 18040714741121369823
20505436 4 18058166323053538705
21150785 3 18271806762026048518
21781055 127 17390516547356031785
220451 1 18260539048326450162
2303208 19 17167581575172702394
23081809 10 18202281416507971656
23402539 116 18342454867713615608
23522609 53 17680114470579461552
23559900 14 18263936453594497337
24771293 8 18131348576022292500
2838139 119 17489587887799442628
328310 630 17489574650462466572
3610482 184 18201140139996042293
4015057 19 17988351560405078184
4073 2 17988631996236677722
4169191 19 16915926393522162764
484985 159 15936416624595201039
497634 4 18272374170129006877
531348 171 18337109076649980875
6700243 42 17606927721065434989
7495541 125 17531248327425022496
8863177 126 17168715102620164006

> <PUBCHEM_SHAPE_MULTIPOLES>
498.66
19.26
3.31
1.45
22.06
2.28
0.01
-1.19
-7.54
-8
-0.72
-0.38
-0.4
-2.19

> <PUBCHEM_SHAPE_SELFOVERLAP>
1039.243

> <PUBCHEM_SHAPE_VOLUME>
283.7

> <PUBCHEM_COORDINATE_TYPE>
2
5
10

$$$$

