7847006
  -OEChem-06241222483D

 47 49  0     0  0  0  0  0  0999 V2000
    3.3908    0.1316    1.9183 S   0  0  0  0  0  0  0  0  0  0  0  0
   -0.0329    2.1455    0.0204 O   0  0  0  0  0  0  0  0  0  0  0  0
   -2.7312   -2.5900   -0.0089 O   0  0  0  0  0  0  0  0  0  0  0  0
   -5.0723   -1.4459    0.9592 O   0  0  0  0  0  0  0  0  0  0  0  0
    1.2821    3.3483   -1.4444 O   0  0  0  0  0  0  0  0  0  0  0  0
    3.3297    0.6141   -0.6146 N   0  0  0  0  0  0  0  0  0  0  0  0
   -2.0339    0.9572   -0.5142 C   0  0  0  0  0  0  0  0  0  0  0  0
    3.3023    2.6428    0.7940 C   0  0  0  0  0  0  0  0  0  0  0  0
   -3.2034    1.5352   -0.0308 C   0  0  0  0  0  0  0  0  0  0  0  0
    1.8666    3.1878    0.9110 C   0  0  0  0  0  0  0  0  0  0  0  0
   -0.9222    1.8108   -1.0499 C   0  0  0  0  0  0  0  0  0  0  0  0
    3.3372    1.1814    0.5690 C   0  0  0  0  0  0  0  0  0  0  0  0
   -1.8738   -0.4251   -0.5075 C   0  0  0  0  0  0  0  0  0  0  0  0
   -4.2234    0.7228    0.4642 C   0  0  0  0  0  0  0  0  0  0  0  0
   -2.8938   -1.2373   -0.0124 C   0  0  0  0  0  0  0  0  0  0  0  0
   -4.0688   -0.6635    0.4734 C   0  0  0  0  0  0  0  0  0  0  0  0
    1.0345    2.9256   -0.3236 C   0  0  0  0  0  0  0  0  0  0  0  0
    3.4063   -1.2228    0.8513 C   0  0  0  0  0  0  0  0  0  0  0  0
    3.3691   -0.7649   -0.4691 C   0  0  0  0  0  0  0  0  0  0  0  0
   -3.3914    3.0166   -0.0298 C   0  0  0  0  0  0  0  0  0  0  0  0
    3.4483   -2.5918    1.1607 C   0  0  0  0  0  0  0  0  0  0  0  0
    3.3742   -1.7130   -1.5153 C   0  0  0  0  0  0  0  0  0  0  0  0
    3.4525   -3.5089    0.1068 C   0  0  0  0  0  0  0  0  0  0  0  0
    3.4160   -3.0775   -1.2145 C   0  0  0  0  0  0  0  0  0  0  0  0
   -1.5008   -3.0960   -0.5229 C   0  0  0  0  0  0  0  0  0  0  0  0
   -6.0617   -1.8829    0.0295 C   0  0  0  0  0  0  0  0  0  0  0  0
    3.8664    2.9201    1.6927 H   0  0  0  0  0  0  0  0  0  0  0  0
    3.8040    3.1385   -0.0469 H   0  0  0  0  0  0  0  0  0  0  0  0
    1.8861    4.2719    1.0705 H   0  0  0  0  0  0  0  0  0  0  0  0
    1.3726    2.7531    1.7889 H   0  0  0  0  0  0  0  0  0  0  0  0
   -0.3659    1.2575   -1.8180 H   0  0  0  0  0  0  0  0  0  0  0  0
   -1.2995    2.7210   -1.5292 H   0  0  0  0  0  0  0  0  0  0  0  0
   -0.9376   -0.8142   -0.8932 H   0  0  0  0  0  0  0  0  0  0  0  0
   -5.1431    1.1607    0.8449 H   0  0  0  0  0  0  0  0  0  0  0  0
   -4.2981    3.3071    0.5126 H   0  0  0  0  0  0  0  0  0  0  0  0
   -3.4900    3.3917   -1.0535 H   0  0  0  0  0  0  0  0  0  0  0  0
   -2.5546    3.5185    0.4668 H   0  0  0  0  0  0  0  0  0  0  0  0
    3.4767   -2.9360    2.1900 H   0  0  0  0  0  0  0  0  0  0  0  0
    3.3452   -1.3869   -2.5511 H   0  0  0  0  0  0  0  0  0  0  0  0
    3.4844   -4.5733    0.3244 H   0  0  0  0  0  0  0  0  0  0  0  0
    3.4193   -3.8054   -2.0211 H   0  0  0  0  0  0  0  0  0  0  0  0
   -1.5433   -4.1873   -0.4438 H   0  0  0  0  0  0  0  0  0  0  0  0
   -1.3791   -2.8597   -1.5855 H   0  0  0  0  0  0  0  0  0  0  0  0
   -0.6458   -2.7678    0.0784 H   0  0  0  0  0  0  0  0  0  0  0  0
   -6.5864   -1.0252   -0.4033 H   0  0  0  0  0  0  0  0  0  0  0  0
   -6.7860   -2.5020    0.5657 H   0  0  0  0  0  0  0  0  0  0  0  0
   -5.6064   -2.4844   -0.7638 H   0  0  0  0  0  0  0  0  0  0  0  0
  1 12  1  0  0  0  0
  1 18  1  0  0  0  0
  2 11  1  0  0  0  0
  2 17  1  0  0  0  0
  3 15  1  0  0  0  0
  3 25  1  0  0  0  0
  4 16  1  0  0  0  0
  4 26  1  0  0  0  0
  5 17  2  0  0  0  0
  6 12  2  0  0  0  0
  6 19  1  0  0  0  0
  7  9  1  0  0  0  0
  7 11  1  0  0  0  0
  7 13  2  0  0  0  0
  8 10  1  0  0  0  0
  8 12  1  0  0  0  0
  8 27  1  0  0  0  0
  8 28  1  0  0  0  0
  9 14  2  0  0  0  0
  9 20  1  0  0  0  0
 10 17  1  0  0  0  0
 10 29  1  0  0  0  0
 10 30  1  0  0  0  0
 11 31  1  0  0  0  0
 11 32  1  0  0  0  0
 13 15  1  0  0  0  0
 13 33  1  0  0  0  0
 14 16  1  0  0  0  0
 14 34  1  0  0  0  0
 15 16  2  0  0  0  0
 18 19  1  0  0  0  0
 18 21  2  0  0  0  0
 19 22  2  0  0  0  0
 20 35  1  0  0  0  0
 20 36  1  0  0  0  0
 20 37  1  0  0  0  0
 21 23  1  0  0  0  0
 21 38  1  0  0  0  0
 22 24  1  0  0  0  0
 22 39  1  0  0  0  0
 23 24  2  0  0  0  0
 23 40  1  0  0  0  0
 24 41  1  0  0  0  0
 25 42  1  0  0  0  0
 25 43  1  0  0  0  0
 25 44  1  0  0  0  0
 26 45  1  0  0  0  0
 26 46  1  0  0  0  0
 26 47  1  0  0  0  0
M  END
> <PUBCHEM_COMPOUND_CID>
7847006

> <PUBCHEM_CONFORMER_RMSD>
1.2

> <PUBCHEM_CONFORMER_DIVERSEORDER>
2
9
90
54
128
65
49
145
67
120
59
29
72
108
1
39
17
55
115
52
19
129
58
139
80
36
96
97
143
62
123
136
102
18
43
132
12
133
76
142
84
11
88
121
118
63
34
64
5
130
3
61
94
32
26
24
60
98
4
68
92
127
8
101
57
23
13
110
91
107
75
20
125
83
74
7
27
30
104
149
87
66
10
81
77
119
78
126
56
147
70
44
37
99
14
33
35
146
148
134
114
131
28
89
95
47
31
85
42
71
135
50
73
106
46
53
21
41
109
40
45
124
6
48
116
144
22
117
113
15
137
86
79
140
105
38
82
93
25
69
100
16
103
138
141
122
111
51
112

> <PUBCHEM_MMFF94_PARTIAL_CHARGES>
32
1 -0.08
10 0.06
11 0.42
12 0.2
13 -0.15
14 -0.15
15 0.08
16 0.08
17 0.66
18 0.04
19 0.23
2 -0.43
20 0.14
21 -0.15
22 -0.15
23 -0.15
24 -0.15
25 0.28
26 0.28
3 -0.36
33 0.15
34 0.15
38 0.15
39 0.15
4 -0.36
40 0.15
41 0.15
5 -0.57
6 -0.57
7 -0.14
8 0.18
9 -0.14

> <PUBCHEM_EFFECTIVE_ROTOR_COUNT>
8

> <PUBCHEM_PHARMACOPHORE_FEATURES>
7
1 3 acceptor
1 4 acceptor
1 5 acceptor
1 6 acceptor
5 1 6 12 18 19 rings
6 18 19 21 22 23 24 rings
6 7 9 13 14 15 16 rings

> <PUBCHEM_HEAVY_ATOM_COUNT>
26

> <PUBCHEM_ATOM_DEF_STEREO_COUNT>
0

> <PUBCHEM_ATOM_UDEF_STEREO_COUNT>
0

> <PUBCHEM_BOND_DEF_STEREO_COUNT>
0

> <PUBCHEM_BOND_UDEF_STEREO_COUNT>
0

> <PUBCHEM_ISOTOPIC_ATOM_COUNT>
0

> <PUBCHEM_COMPONENT_COUNT>
1

> <PUBCHEM_CACTVS_TAUTO_COUNT>
2

> <PUBCHEM_CONFORMER_ID>
0077BC5E00000002

> <PUBCHEM_MMFF94_ENERGY>
74.2275

> <PUBCHEM_FEATURE_SELFOVERLAP>
35.596

> <PUBCHEM_SHAPE_FINGERPRINT>
10616163 171 18050569538685395084
10928967 22 17987511687976412579
1100329 8 15526017723851911582
114674 6 18341613672788892066
12107183 9 18190731136963347617
12553582 1 18411708651371414310
12633257 1 18118680165215778456
12712778 12 17261617560731778530
12925494 130 17975977884643389425
13122387 1 18410299094602588134
13533116 47 18261672563526669993
13583140 156 17896331228969266609
14251757 5 17906160012844373222
14863182 85 18196651805226202244
14866123 147 17542782457440141721
17974551 9 17242461744123847120
1813 80 17417813894625912949
19301679 30 18269832026806047115
1979834 28 18263650575864578936
19930381 70 18411139173031305803
20775530 9 18338800117059512998
21133410 32 16768961318636582442
23559900 14 18261669367385271357
3117164 225 18263066864609519865
44317340 157 9511472096074293425
5776283 40 17977643344285962844
6287921 2 18337392626053515530
6433294 58 18410013217299983106
6823239 73 18260818307316171044
7097593 13 18410012096187308149

> <PUBCHEM_SHAPE_MULTIPOLES>
510.46
10.91
5.03
1.29
9.04
0.5
-0.06
-6.46
-2.12
-2.2
0.56
-1.3
-0.03
1.07

> <PUBCHEM_SHAPE_SELFOVERLAP>
1079.081

> <PUBCHEM_SHAPE_VOLUME>
289.3

> <PUBCHEM_COORDINATE_TYPE>
2
5
10

$$$$

