5121
  -OEChem-06261200312D

 26 28  0     1  0  0  0  0  0999 V2000
    2.0000    0.0000    0.0000 Br  0  0  0  0  0  0  0  0  0  0  0  0
    8.4851   -0.8047    0.0000 S   0  0  0  0  0  0  0  0  0  0  0  0
    7.5388    0.5000    0.0000 N   0  0  0  0  0  0  0  0  0  0  0  0
    6.5878   -0.8090    0.0000 N   0  0  0  0  0  0  0  0  0  0  0  0
    6.5878    0.8090    0.0000 C   0  0  0  0  0  0  0  0  0  0  0  0
    6.0000    0.0000    0.0000 C   0  0  3  0  0  0  0  0  0  0  0  0
    8.4851    0.8047    0.0000 C   0  0  0  0  0  0  0  0  0  0  0  0
    7.5388   -0.5000    0.0000 C   0  0  0  0  0  0  0  0  0  0  0  0
    9.0687    0.0000    0.0000 C   0  0  0  0  0  0  0  0  0  0  0  0
    5.0000    0.0000    0.0000 C   0  0  0  0  0  0  0  0  0  0  0  0
    4.5000    0.8660    0.0000 C   0  0  0  0  0  0  0  0  0  0  0  0
    4.5000   -0.8660    0.0000 C   0  0  0  0  0  0  0  0  0  0  0  0
    3.5000    0.8660    0.0000 C   0  0  0  0  0  0  0  0  0  0  0  0
    3.5000   -0.8660    0.0000 C   0  0  0  0  0  0  0  0  0  0  0  0
    3.0000    0.0000    0.0000 C   0  0  0  0  0  0  0  0  0  0  0  0
    6.8400    1.3754    0.0000 H   0  0  0  0  0  0  0  0  0  0  0  0
    6.0508    1.1190    0.0000 H   0  0  0  0  0  0  0  0  0  0  0  0
    5.6141   -0.7574    0.0000 H   0  0  0  0  0  0  0  0  0  0  0  0
    9.0224    1.1140    0.0000 H   0  0  0  0  0  0  0  0  0  0  0  0
    8.2340    1.3716    0.0000 H   0  0  0  0  0  0  0  0  0  0  0  0
    9.5295   -0.4147    0.0000 H   0  0  0  0  0  0  0  0  0  0  0  0
    9.5295    0.4147    0.0000 H   0  0  0  0  0  0  0  0  0  0  0  0
    4.8100    1.4030    0.0000 H   0  0  0  0  0  0  0  0  0  0  0  0
    4.8100   -1.4030    0.0000 H   0  0  0  0  0  0  0  0  0  0  0  0
    3.1900    1.4030    0.0000 H   0  0  0  0  0  0  0  0  0  0  0  0
    3.1900   -1.4030    0.0000 H   0  0  0  0  0  0  0  0  0  0  0  0
  1 15  1  0  0  0  0
  2  8  1  0  0  0  0
  2  9  1  0  0  0  0
  3  5  1  0  0  0  0
  3  7  1  0  0  0  0
  3  8  1  0  0  0  0
  4  6  1  0  0  0  0
  4  8  2  0  0  0  0
  5  6  1  0  0  0  0
  5 16  1  0  0  0  0
  5 17  1  0  0  0  0
  6 10  1  0  0  0  0
  6 18  1  0  0  0  0
  7  9  1  0  0  0  0
  7 19  1  0  0  0  0
  7 20  1  0  0  0  0
  9 21  1  0  0  0  0
  9 22  1  0  0  0  0
 10 11  2  0  0  0  0
 10 12  1  0  0  0  0
 11 13  1  0  0  0  0
 11 23  1  0  0  0  0
 12 14  2  0  0  0  0
 12 24  1  0  0  0  0
 13 15  2  0  0  0  0
 13 25  1  0  0  0  0
 14 15  1  0  0  0  0
 14 26  1  0  0  0  0
M  END
> <PUBCHEM_COMPOUND_CID>
5121

> <PUBCHEM_COMPOUND_CANONICALIZED>
1

> <PUBCHEM_CACTVS_COMPLEXITY>
274

> <PUBCHEM_CACTVS_HBOND_ACCEPTOR>
2

> <PUBCHEM_CACTVS_HBOND_DONOR>
0

> <PUBCHEM_CACTVS_ROTATABLE_BOND>
1

> <PUBCHEM_CACTVS_SUBSKEYS>
AAADccBzAABAEAAAAAAAAAAAAAAAAWIAAAAwAAAAAAAQAAABAAAAHARAAAABrCjFWASxAIMAAAigAiBCJACCEAFgABQJiAAIBKgIYCKAmRGUIABggACIihcQgIAOAgAAAAAAAAAEAAAAAAAAAAAAAAAAAA==

> <PUBCHEM_IUPAC_OPENEYE_NAME>
6-(4-bromophenyl)-2,3,5,6-tetrahydroimidazo[2,1-b]thiazole

> <PUBCHEM_IUPAC_CAS_NAME>
6-(4-bromophenyl)-2,3,5,6-tetrahydroimidazo[2,1-b]thiazole

> <PUBCHEM_IUPAC_NAME>
6-(4-bromophenyl)-2,3,5,6-tetrahydroimidazo[2,1-b][1,3]thiazole

> <PUBCHEM_IUPAC_SYSTEMATIC_NAME>
6-(4-bromophenyl)-2,3,5,6-tetrahydroimidazo[2,1-b][1,3]thiazole

> <PUBCHEM_IUPAC_TRADITIONAL_NAME>
6-(4-bromophenyl)-2,3,5,6-tetrahydroimidazo[2,1-b]thiazole

> <PUBCHEM_IUPAC_INCHI>
InChI=1S/C11H11BrN2S/c12-9-3-1-8(2-4-9)10-7-14-5-6-15-11(14)13-10/h1-4,10H,5-7H2

> <PUBCHEM_IUPAC_INCHIKEY>
HTHGAIADRJRJOY-UHFFFAOYSA-N

> <PUBCHEM_XLOGP3>
2.5

> <PUBCHEM_EXACT_MASS>
281.982631

> <PUBCHEM_MOLECULAR_FORMULA>
C11H11BrN2S

> <PUBCHEM_MOLECULAR_WEIGHT>
283.18744

> <PUBCHEM_OPENEYE_CAN_SMILES>
C1CSC2=NC(CN21)C3=CC=C(C=C3)Br

> <PUBCHEM_OPENEYE_ISO_SMILES>
C1CSC2=NC(CN21)C3=CC=C(C=C3)Br

> <PUBCHEM_CACTVS_TPSA>
40.9

> <PUBCHEM_MONOISOTOPIC_WEIGHT>
281.982631

> <PUBCHEM_TOTAL_CHARGE>
0

> <PUBCHEM_HEAVY_ATOM_COUNT>
15

> <PUBCHEM_ATOM_DEF_STEREO_COUNT>
0

> <PUBCHEM_ATOM_UDEF_STEREO_COUNT>
1

> <PUBCHEM_BOND_DEF_STEREO_COUNT>
0

> <PUBCHEM_BOND_UDEF_STEREO_COUNT>
0

> <PUBCHEM_ISOTOPIC_ATOM_COUNT>
0

> <PUBCHEM_COMPONENT_COUNT>
1

> <PUBCHEM_CACTVS_TAUTO_COUNT>
1

> <PUBCHEM_COORDINATE_TYPE>
1
5
255

> <PUBCHEM_BONDANNOTATIONS>
10  11  8
10  12  8
11  13  8
12  14  8
13  15  8
14  15  8
6  18  3

$$$$

