12663
  -OEChem-06261207132D

 15 15  0     0  0  0  0  0  0999 V2000
    4.2690   -1.5000    0.0000 O   0  0  0  0  0  0  0  0  0  0  0  0
    2.5369   -1.5000    0.0000 O   0  0  0  0  0  0  0  0  0  0  0  0
    4.2690    1.5000    0.0000 O   0  0  0  0  0  0  0  0  0  0  0  0
    5.1350   -1.0000    0.0000 C   0  0  0  0  0  0  0  0  0  0  0  0
    5.1350    0.0000    0.0000 C   0  0  0  0  0  0  0  0  0  0  0  0
    4.2690    0.5000    0.0000 C   0  0  0  0  0  0  0  0  0  0  0  0
    6.0010   -1.5000    0.0000 C   0  0  0  0  0  0  0  0  0  0  0  0
    3.4030    0.0000    0.0000 C   0  0  0  0  0  0  0  0  0  0  0  0
    3.4030   -1.0000    0.0000 C   0  0  0  0  0  0  0  0  0  0  0  0
    5.6720    0.3100    0.0000 H   0  0  0  0  0  0  0  0  0  0  0  0
    5.6910   -2.0369    0.0000 H   0  0  0  0  0  0  0  0  0  0  0  0
    6.5380   -1.8100    0.0000 H   0  0  0  0  0  0  0  0  0  0  0  0
    6.3110   -0.9631    0.0000 H   0  0  0  0  0  0  0  0  0  0  0  0
    2.8660    0.3100    0.0000 H   0  0  0  0  0  0  0  0  0  0  0  0
    2.0000   -1.1900    0.0000 H   0  0  0  0  0  0  0  0  0  0  0  0
  1  4  1  0  0  0  0
  1  9  1  0  0  0  0
  2  9  1  0  0  0  0
  2 15  1  0  0  0  0
  3  6  2  0  0  0  0
  4  5  2  0  0  0  0
  4  7  1  0  0  0  0
  5  6  1  0  0  0  0
  5 10  1  0  0  0  0
  6  8  1  0  0  0  0
  7 11  1  0  0  0  0
  7 12  1  0  0  0  0
  7 13  1  0  0  0  0
  8  9  2  0  0  0  0
  8 14  1  0  0  0  0
M  END
> <PUBCHEM_COMPOUND_CID>
12663

> <PUBCHEM_COMPOUND_CANONICALIZED>
1

> <PUBCHEM_CACTVS_COMPLEXITY>
200

> <PUBCHEM_CACTVS_HBOND_ACCEPTOR>
3

> <PUBCHEM_CACTVS_HBOND_DONOR>
1

> <PUBCHEM_CACTVS_ROTATABLE_BOND>
0

> <PUBCHEM_CACTVS_SUBSKEYS>
AAADcYBgMAAAAAAAAAAAAAAAAAAAAAAAAAAgAAAAAAAAAAAAAAAAGgAACAAACASAgAACCAAABgCIAKBSAAAACAAgIAAACAAAAEgQAAAAAQAAAAAAAAAMAQIAAAAAAAAAAAAAAAAAAAAAAAAAAAAAAAAAAA==

> <PUBCHEM_IUPAC_OPENEYE_NAME>
2-hydroxy-6-methyl-pyran-4-one

> <PUBCHEM_IUPAC_CAS_NAME>
2-hydroxy-6-methyl-4-pyranone

> <PUBCHEM_IUPAC_NAME>
2-hydroxy-6-methylpyran-4-one

> <PUBCHEM_IUPAC_SYSTEMATIC_NAME>
2-methyl-6-oxidanyl-pyran-4-one

> <PUBCHEM_IUPAC_TRADITIONAL_NAME>
2-hydroxy-6-methyl-pyran-4-one

> <PUBCHEM_IUPAC_INCHI>
InChI=1S/C6H6O3/c1-4-2-5(7)3-6(8)9-4/h2-3,8H,1H3

> <PUBCHEM_IUPAC_INCHIKEY>
OOKCZXGEYPSNIM-UHFFFAOYSA-N

> <PUBCHEM_XLOGP3>
-0.4

> <PUBCHEM_EXACT_MASS>
126.031694

> <PUBCHEM_MOLECULAR_FORMULA>
C6H6O3

> <PUBCHEM_MOLECULAR_WEIGHT>
126.11004

> <PUBCHEM_OPENEYE_CAN_SMILES>
CC1=CC(=O)C=C(O1)O

> <PUBCHEM_OPENEYE_ISO_SMILES>
CC1=CC(=O)C=C(O1)O

> <PUBCHEM_CACTVS_TPSA>
46.5

> <PUBCHEM_MONOISOTOPIC_WEIGHT>
126.031694

> <PUBCHEM_TOTAL_CHARGE>
0

> <PUBCHEM_HEAVY_ATOM_COUNT>
9

> <PUBCHEM_ATOM_DEF_STEREO_COUNT>
0

> <PUBCHEM_ATOM_UDEF_STEREO_COUNT>
0

> <PUBCHEM_BOND_DEF_STEREO_COUNT>
0

> <PUBCHEM_BOND_UDEF_STEREO_COUNT>
0

> <PUBCHEM_ISOTOPIC_ATOM_COUNT>
0

> <PUBCHEM_COMPONENT_COUNT>
1

> <PUBCHEM_CACTVS_TAUTO_COUNT>
8

> <PUBCHEM_COORDINATE_TYPE>
1
5
255

> <PUBCHEM_BONDANNOTATIONS>
1  4  8
1  9  8
4  5  8
5  6  8
6  8  8
8  9  8

$$$$

