12267
  -OEChem-06261206442D

 17 16  0     0  0  0  0  0  0999 V2000
    7.1962   -0.1830    0.0000 F   0  0  0  0  0  0  0  0  0  0  0  0
    6.8301    1.1830    0.0000 F   0  0  0  0  0  0  0  0  0  0  0  0
    5.8301   -0.5490    0.0000 F   0  0  0  0  0  0  0  0  0  0  0  0
    2.0000   -0.1830    0.0000 F   0  0  0  0  0  0  0  0  0  0  0  0
    2.3660    1.1830    0.0000 F   0  0  0  0  0  0  0  0  0  0  0  0
    3.3660   -0.5490    0.0000 F   0  0  0  0  0  0  0  0  0  0  0  0
    3.7320   -1.1830    0.0000 O   0  0  0  0  0  0  0  0  0  0  0  0
    4.5981    0.3170    0.0000 N   0  0  0  0  0  0  0  0  0  0  0  0
    4.5981   -0.6830    0.0000 N   0  0  0  0  0  0  0  0  0  0  0  0
    5.4641    0.8170    0.0000 C   0  0  0  0  0  0  0  0  0  0  0  0
    3.7320    0.8170    0.0000 C   0  0  0  0  0  0  0  0  0  0  0  0
    6.3301    0.3170    0.0000 C   0  0  0  0  0  0  0  0  0  0  0  0
    2.8660    0.3170    0.0000 C   0  0  0  0  0  0  0  0  0  0  0  0
    5.8626    1.2919    0.0000 H   0  0  0  0  0  0  0  0  0  0  0  0
    5.0656    1.2919    0.0000 H   0  0  0  0  0  0  0  0  0  0  0  0
    4.1306    1.2919    0.0000 H   0  0  0  0  0  0  0  0  0  0  0  0
    3.3335    1.2919    0.0000 H   0  0  0  0  0  0  0  0  0  0  0  0
  1 12  1  0  0  0  0
  2 12  1  0  0  0  0
  3 12  1  0  0  0  0
  4 13  1  0  0  0  0
  5 13  1  0  0  0  0
  6 13  1  0  0  0  0
  7  9  2  0  0  0  0
  8  9  1  0  0  0  0
  8 10  1  0  0  0  0
  8 11  1  0  0  0  0
 10 12  1  0  0  0  0
 10 14  1  0  0  0  0
 10 15  1  0  0  0  0
 11 13  1  0  0  0  0
 11 16  1  0  0  0  0
 11 17  1  0  0  0  0
M  END
> <PUBCHEM_COMPOUND_CID>
12267

> <PUBCHEM_COMPOUND_CANONICALIZED>
1

> <PUBCHEM_CACTVS_COMPLEXITY>
159

> <PUBCHEM_CACTVS_HBOND_ACCEPTOR>
9

> <PUBCHEM_CACTVS_HBOND_DONOR>
0

> <PUBCHEM_CACTVS_ROTATABLE_BOND>
2

> <PUBCHEM_CACTVS_SUBSKEYS>
AAADcYBjIcAAAAAAAAAAAAAAAAAAAAAAAAAAAAAAAAAAAAAAAAAAHQAMAAAAAADBABQAAAIAAAABAAAAAAAAAAAAAAAQAAAIAAAAAAAAAAAAAAAAAACAAAAAAAAAAAAAAAAAAAAAAAAAAAAAAAAAAAAAAA==

> <PUBCHEM_IUPAC_OPENEYE_NAME>
N,N-bis(2,2,2-trifluoroethyl)nitrous amide

> <PUBCHEM_IUPAC_CAS_NAME>
N,N-bis(2,2,2-trifluoroethyl)nitrous amide

> <PUBCHEM_IUPAC_NAME>
N,N-bis(2,2,2-trifluoroethyl)nitrous amide

> <PUBCHEM_IUPAC_SYSTEMATIC_NAME>
N,N-bis[2,2,2-tris(fluoranyl)ethyl]nitrous amide

> <PUBCHEM_IUPAC_TRADITIONAL_NAME>
N,N-bis(2,2,2-trifluoroethyl)nitrous amide

> <PUBCHEM_IUPAC_INCHI>
InChI=1S/C4H4F6N2O/c5-3(6,7)1-12(11-13)2-4(8,9)10/h1-2H2

> <PUBCHEM_IUPAC_INCHIKEY>
YUEXLPFBTMPXCY-UHFFFAOYSA-N

> <PUBCHEM_XLOGP3>
2.1

> <PUBCHEM_EXACT_MASS>
210.022782

> <PUBCHEM_MOLECULAR_FORMULA>
C4H4F6N2O

> <PUBCHEM_MOLECULAR_WEIGHT>
210.077779

> <PUBCHEM_OPENEYE_CAN_SMILES>
C(C(F)(F)F)N(CC(F)(F)F)N=O

> <PUBCHEM_OPENEYE_ISO_SMILES>
C(C(F)(F)F)N(CC(F)(F)F)N=O

> <PUBCHEM_CACTVS_TPSA>
32.7

> <PUBCHEM_MONOISOTOPIC_WEIGHT>
210.022782

> <PUBCHEM_TOTAL_CHARGE>
0

> <PUBCHEM_HEAVY_ATOM_COUNT>
13

> <PUBCHEM_ATOM_DEF_STEREO_COUNT>
0

> <PUBCHEM_ATOM_UDEF_STEREO_COUNT>
0

> <PUBCHEM_BOND_DEF_STEREO_COUNT>
0

> <PUBCHEM_BOND_UDEF_STEREO_COUNT>
0

> <PUBCHEM_ISOTOPIC_ATOM_COUNT>
0

> <PUBCHEM_COMPONENT_COUNT>
1

> <PUBCHEM_CACTVS_TAUTO_COUNT>
1

> <PUBCHEM_COORDINATE_TYPE>
1
5
255

$$$$

