14218
  -OEChem-06241222423D

 34 33  0     0  0  0  0  0  0999 V2000
    0.0378   -0.2901    0.0851 O   0  0  0  0  0  0  0  0  0  0  0  0
   -3.7120    1.7213    0.1847 O   0  0  0  0  0  0  0  0  0  0  0  0
    2.3857    1.8335   -1.1972 O   0  0  0  0  0  0  0  0  0  0  0  0
    1.4620   -1.5795   -1.1795 O   0  0  0  0  0  0  0  0  0  0  0  0
   -2.4130   -0.3435   -0.0108 C   0  0  0  0  0  0  0  0  0  0  0  0
    2.3788    0.0179    0.4295 C   0  0  0  0  0  0  0  0  0  0  0  0
   -1.0835   -0.9092   -0.5534 C   0  0  0  0  0  0  0  0  0  0  0  0
   -2.4862    1.1746   -0.2870 C   0  0  0  0  0  0  0  0  0  0  0  0
   -2.5144   -0.6000    1.5048 C   0  0  0  0  0  0  0  0  0  0  0  0
   -3.5786   -1.0649   -0.7116 C   0  0  0  0  0  0  0  0  0  0  0  0
    1.2672   -0.7225   -0.3259 C   0  0  0  0  0  0  0  0  0  0  0  0
    2.2583    1.5344    0.1881 C   0  0  0  0  0  0  0  0  0  0  0  0
    3.7483   -0.4892   -0.0577 C   0  0  0  0  0  0  0  0  0  0  0  0
    2.2496   -0.2828    1.9310 C   0  0  0  0  0  0  0  0  0  0  0  0
   -1.0367   -1.9912   -0.3757 H   0  0  0  0  0  0  0  0  0  0  0  0
   -1.0166   -0.7332   -1.6347 H   0  0  0  0  0  0  0  0  0  0  0  0
   -1.6687    1.7057    0.2130 H   0  0  0  0  0  0  0  0  0  0  0  0
   -2.4163    1.3753   -1.3619 H   0  0  0  0  0  0  0  0  0  0  0  0
   -3.4825   -0.2775    1.9036 H   0  0  0  0  0  0  0  0  0  0  0  0
   -2.4054   -1.6670    1.7304 H   0  0  0  0  0  0  0  0  0  0  0  0
   -1.7344   -0.0621    2.0548 H   0  0  0  0  0  0  0  0  0  0  0  0
   -3.5263   -2.1477   -0.5502 H   0  0  0  0  0  0  0  0  0  0  0  0
   -4.5495   -0.7235   -0.3362 H   0  0  0  0  0  0  0  0  0  0  0  0
   -3.5578   -0.8880   -1.7928 H   0  0  0  0  0  0  0  0  0  0  0  0
    3.0504    2.0751    0.7174 H   0  0  0  0  0  0  0  0  0  0  0  0
    1.2988    1.9338    0.5350 H   0  0  0  0  0  0  0  0  0  0  0  0
    3.8664   -1.5611    0.1402 H   0  0  0  0  0  0  0  0  0  0  0  0
    4.5668    0.0356    0.4475 H   0  0  0  0  0  0  0  0  0  0  0  0
    3.8732   -0.3451   -1.1369 H   0  0  0  0  0  0  0  0  0  0  0  0
    3.0686    0.1731    2.4984 H   0  0  0  0  0  0  0  0  0  0  0  0
    2.2663   -1.3623    2.1198 H   0  0  0  0  0  0  0  0  0  0  0  0
    1.3088    0.1030    2.3399 H   0  0  0  0  0  0  0  0  0  0  0  0
   -3.6981    2.6717   -0.0202 H   0  0  0  0  0  0  0  0  0  0  0  0
    1.6117    1.4623   -1.6533 H   0  0  0  0  0  0  0  0  0  0  0  0
  1  7  1  0  0  0  0
  1 11  1  0  0  0  0
  2  8  1  0  0  0  0
  2 33  1  0  0  0  0
  3 12  1  0  0  0  0
  3 34  1  0  0  0  0
  4 11  2  0  0  0  0
  5  7  1  0  0  0  0
  5  8  1  0  0  0  0
  5  9  1  0  0  0  0
  5 10  1  0  0  0  0
  6 11  1  0  0  0  0
  6 12  1  0  0  0  0
  6 13  1  0  0  0  0
  6 14  1  0  0  0  0
  7 15  1  0  0  0  0
  7 16  1  0  0  0  0
  8 17  1  0  0  0  0
  8 18  1  0  0  0  0
  9 19  1  0  0  0  0
  9 20  1  0  0  0  0
  9 21  1  0  0  0  0
 10 22  1  0  0  0  0
 10 23  1  0  0  0  0
 10 24  1  0  0  0  0
 12 25  1  0  0  0  0
 12 26  1  0  0  0  0
 13 27  1  0  0  0  0
 13 28  1  0  0  0  0
 13 29  1  0  0  0  0
 14 30  1  0  0  0  0
 14 31  1  0  0  0  0
 14 32  1  0  0  0  0
M  END
> <PUBCHEM_COMPOUND_CID>
14218

> <PUBCHEM_CONFORMER_RMSD>
0.6

> <PUBCHEM_CONFORMER_DIVERSEORDER>
1
419
167
472
391
395
455
192
287
106
276
440
4
219
278
436
394
458
190
2
418
474
353
334
444
194
196
336
466
350
365
442
372
479
439
360
238
206
332
432
215
254
434
122
346
368
470
477
64
103
473
427
157
150
187
314
381
328
452
322
384
425
163
284
386
85
361
409
463
429
158
239
424
252
247
356
450
30
464
390
270
220
101
147
48
408
210
236
358
326
154
441
296
421
416
392
382
47
448
115
140
117
370
200
177
423
351
289
131
354
345
146
375
465
352
385
232
478
130
98
378
109
456
410
275
435
459
282
363
86
366
428
406
460
207
299
156
457
223
241
398
453
237
159
438
461
338
377
46
250
175
401
123
184
476
467
245
149
44
142
373
96
379
417
293
388
213
7
404
414
45
343
134
205
251
266
225
344
374
116
431
124
164
295
426
274
153
126
316
301
35
119
400
337
183
449
155
393
195
468
367
413
403
24
139
203
242
89
267
311
294
204
178
475
181
107
169
113
315
451
70
399
127
480
230
240
82
364
172
339
312
73
308
92
329
186
112
34
138
161
17
197
430
105
91
291
260
300
145
389
273
188
341
411
362
212
217
357
355
62
182
443
415
42
227
433
253
325
405
180
317
313
256
21
243
5
342
376
90
202
387
283
141
307
37
380
422
173
323
233
412
176
97
234
20
160
76
198
347
228
128
208
133
148
87
94
288
174
120
229
56
286
189
77
454
100
43
78
235
162
292
79
331
303
104
437
320
211
60
99
330
11
319
304
54
281
88
51
257
171
445
84
10
9
258
143
396
199
18
383
222
80
209
471
72
305
369
135
446
59
12
63
221
348
125
402
40
32
298
57
447
216
271
333
95
255
33
359
16
193
420
462
152
23
15
25
226
269
302
407
38
349
39
53
309
61
55
231
327
279
262
114
191
263
8
246
14
272
27
108
129
179
137
22
170
111
261
264
259
306
6
81
297
66
371
151
71
58
28
201
68
165
340
83
285
65
136
31
248
310
49
265
218
166
29
318
185
52
3
249
93
335
224
268
74
36
132
121
321
41
214
19
397
102
69
277
144
50
13
469
244
67
280
290
118
26
324
110
75
168

> <PUBCHEM_MMFF94_PARTIAL_CHARGES>
11
1 -0.43
11 0.66
12 0.28
2 -0.68
3 -0.68
33 0.4
34 0.4
4 -0.57
6 0.06
7 0.28
8 0.28

> <PUBCHEM_EFFECTIVE_ROTOR_COUNT>
6

> <PUBCHEM_PHARMACOPHORE_FEATURES>
7
1 2 acceptor
1 2 donor
1 3 acceptor
1 3 donor
1 4 acceptor
3 5 9 10 hydrophobe
3 6 13 14 hydrophobe

> <PUBCHEM_HEAVY_ATOM_COUNT>
14

> <PUBCHEM_ATOM_DEF_STEREO_COUNT>
0

> <PUBCHEM_ATOM_UDEF_STEREO_COUNT>
0

> <PUBCHEM_BOND_DEF_STEREO_COUNT>
0

> <PUBCHEM_BOND_UDEF_STEREO_COUNT>
0

> <PUBCHEM_ISOTOPIC_ATOM_COUNT>
0

> <PUBCHEM_COMPONENT_COUNT>
1

> <PUBCHEM_CACTVS_TAUTO_COUNT>
1

> <PUBCHEM_CONFORMER_ID>
0000378A00000001

> <PUBCHEM_MMFF94_ENERGY>
32.8068

> <PUBCHEM_FEATURE_SELFOVERLAP>
35.52

> <PUBCHEM_SHAPE_FINGERPRINT>
12162725 195 18413393120307052773
122479 349 18268704077915350625
124424 183 18130517425917485474
12696612 119 18201998811290477508
12932764 1 17167865240324277647
14144814 61 17918001589254612747
15775835 57 17603870009139580017
17041 49 18059302070708415216
17802600 8 18261683588111788721
18186145 218 17846503633834658305
20233049 118 18114186354272783960
20653085 51 18263075673470755635
21028194 46 17895198770335398910
22169311 14 17704070711402566297
230 275 16805612447140148826
23402539 116 18339939134107863479
23557571 272 17821730533381343629
3248919 1 18413112749184552839
74978 22 17917714586623454091

> <PUBCHEM_SHAPE_MULTIPOLES>
264.64
6.75
1.63
1.3
1.9
0.69
-0.52
0.8
-0.16
0.18
0.43
-0.37
-0.2
-0.26

> <PUBCHEM_SHAPE_SELFOVERLAP>
505.812

> <PUBCHEM_SHAPE_VOLUME>
164.1

> <PUBCHEM_COORDINATE_TYPE>
2
5
10

$$$$

