47205542
  -OEChem-06241222593D

 43 43  0     1  0  0  0  0  0999 V2000
   -4.4691    0.9628    0.2703 S   0  0  0  0  0  0  0  0  0  0  0  0
   -5.2022    2.0091   -0.4146 O   0  0  0  0  0  0  0  0  0  0  0  0
   -4.8489    0.5324    1.6015 O   0  0  0  0  0  0  0  0  0  0  0  0
    0.4561   -0.6013   -1.5778 O   0  0  0  0  0  0  0  0  0  0  0  0
    2.6471   -0.1054    1.7310 O   0  0  0  0  0  0  0  0  0  0  0  0
   -2.0016   -0.8543   -0.3810 N   0  0  0  0  0  0  0  0  0  0  0  0
    1.4016   -1.9231    0.0813 N   0  0  0  0  0  0  0  0  0  0  0  0
    4.0059    0.4874   -0.0543 N   0  0  0  0  0  0  0  0  0  0  0  0
   -1.8593    0.2249    0.6115 C   0  0  0  0  0  0  0  0  0  0  0  0
   -3.3482   -1.4508   -0.3542 C   0  0  0  0  0  0  0  0  0  0  0  0
   -2.7521    1.4192    0.2964 C   0  0  0  0  0  0  0  0  0  0  0  0
   -4.4244   -0.4632   -0.7888 C   0  0  0  0  0  0  0  0  0  0  0  0
   -0.9937   -1.8898   -0.1380 C   0  0  0  0  0  0  0  0  0  0  0  0
    0.3450   -1.3952   -0.6463 C   0  0  0  0  0  0  0  0  0  0  0  0
    2.7851   -1.5934   -0.1771 C   0  0  1  0  0  0  0  0  0  0  0  0
    3.1296   -0.3462    0.6263 C   0  0  0  0  0  0  0  0  0  0  0  0
    3.7060   -2.7471    0.1886 C   0  0  0  0  0  0  0  0  0  0  0  0
    4.4508    1.7536    0.4796 C   0  0  0  0  0  0  0  0  0  0  0  0
    3.5384    2.9060    0.0773 C   0  0  0  0  0  0  0  0  0  0  0  0
    3.4339    3.0743   -1.4318 C   0  0  0  0  0  0  0  0  0  0  0  0
   -2.0780   -0.1490    1.6205 H   0  0  0  0  0  0  0  0  0  0  0  0
   -0.8274    0.5958    0.6284 H   0  0  0  0  0  0  0  0  0  0  0  0
   -3.3894   -2.2971   -1.0513 H   0  0  0  0  0  0  0  0  0  0  0  0
   -3.5755   -1.8452    0.6448 H   0  0  0  0  0  0  0  0  0  0  0  0
   -2.5093    1.8449   -0.6830 H   0  0  0  0  0  0  0  0  0  0  0  0
   -5.4154   -0.9260   -0.7521 H   0  0  0  0  0  0  0  0  0  0  0  0
   -4.2453   -0.1092   -1.8096 H   0  0  0  0  0  0  0  0  0  0  0  0
   -2.6363    2.2020    1.0522 H   0  0  0  0  0  0  0  0  0  0  0  0
   -0.9495   -2.1789    0.9188 H   0  0  0  0  0  0  0  0  0  0  0  0
   -1.2090   -2.7939   -0.7220 H   0  0  0  0  0  0  0  0  0  0  0  0
    2.8848   -1.3779   -1.2476 H   0  0  0  0  0  0  0  0  0  0  0  0
    1.2013   -2.5250    0.8750 H   0  0  0  0  0  0  0  0  0  0  0  0
    3.4466   -3.6482   -0.3771 H   0  0  0  0  0  0  0  0  0  0  0  0
    3.6344   -2.9905    1.2549 H   0  0  0  0  0  0  0  0  0  0  0  0
    4.7507   -2.4961   -0.0234 H   0  0  0  0  0  0  0  0  0  0  0  0
    4.3569    0.2094   -0.9660 H   0  0  0  0  0  0  0  0  0  0  0  0
    4.5008    1.6853    1.5718 H   0  0  0  0  0  0  0  0  0  0  0  0
    5.4665    1.9225    0.1064 H   0  0  0  0  0  0  0  0  0  0  0  0
    3.9214    3.8344    0.5162 H   0  0  0  0  0  0  0  0  0  0  0  0
    2.5335    2.7462    0.4859 H   0  0  0  0  0  0  0  0  0  0  0  0
    4.4219    3.2207   -1.8796 H   0  0  0  0  0  0  0  0  0  0  0  0
    2.9666    2.2033   -1.9017 H   0  0  0  0  0  0  0  0  0  0  0  0
    2.8211    3.9496   -1.6702 H   0  0  0  0  0  0  0  0  0  0  0  0
  1  2  2  0  0  0  0
  1  3  2  0  0  0  0
  1 11  1  0  0  0  0
  1 12  1  0  0  0  0
  4 14  2  0  0  0  0
  5 16  2  0  0  0  0
  6  9  1  0  0  0  0
  6 10  1  0  0  0  0
  6 13  1  0  0  0  0
  7 14  1  0  0  0  0
  7 15  1  0  0  0  0
  7 32  1  0  0  0  0
  8 16  1  0  0  0  0
  8 18  1  0  0  0  0
  8 36  1  0  0  0  0
  9 11  1  0  0  0  0
  9 21  1  0  0  0  0
  9 22  1  0  0  0  0
 10 12  1  0  0  0  0
 10 23  1  0  0  0  0
 10 24  1  0  0  0  0
 11 25  1  0  0  0  0
 11 28  1  0  0  0  0
 12 26  1  0  0  0  0
 12 27  1  0  0  0  0
 13 14  1  0  0  0  0
 13 29  1  0  0  0  0
 13 30  1  0  0  0  0
 15 16  1  0  0  0  0
 15 17  1  0  0  0  0
 15 31  1  0  0  0  0
 17 33  1  0  0  0  0
 17 34  1  0  0  0  0
 17 35  1  0  0  0  0
 18 19  1  0  0  0  0
 18 37  1  0  0  0  0
 18 38  1  0  0  0  0
 19 20  1  0  0  0  0
 19 39  1  0  0  0  0
 19 40  1  0  0  0  0
 20 41  1  0  0  0  0
 20 42  1  0  0  0  0
 20 43  1  0  0  0  0
M  END
> <PUBCHEM_COMPOUND_CID>
47205542

> <PUBCHEM_CONFORMER_RMSD>
1

> <PUBCHEM_CONFORMER_DIVERSEORDER>
3
255
13
174
181
83
165
232
272
254
144
215
249
235
22
117
15
76
236
108
193
172
274
192
24
221
233
59
227
132
131
1
142
14
212
44
180
93
220
241
230
138
151
243
205
250
89
209
118
141
41
2
112
161
226
50
203
179
246
147
229
168
99
32
31
101
225
245
169
271
4
264
155
184
65
266
115
87
7
127
111
126
107
73
125
186
135
185
69
239
197
116
200
231
251
17
77
134
21
67
98
68
70
171
81
252
80
195
214
39
199
183
136
57
104
12
258
66
63
178
238
45
191
137
148
150
35
261
162
60
152
133
253
128
237
219
30
16
154
37
51
56
213
42
156
85
222
263
194
163
29
248
49
218
124
55
146
265
177
40
5
153
262
43
159
130
123
100
53
187
164
260
257
102
46
270
105
244
190
273
247
277
196
160
202
158
109
268
90
18
210
189
267
84
78
139
82
86
216
157
103
79
20
240
206
166
26
33
48
121
122
211
259
256
224
88
143
72
167
8
176
11
64
204
61
188
52
75
114
97
223
74
170
92
6
228
19
106
47
62
71
23
36
269
145
119
201
182
276
140
25
96
208
275
38
173
129
94
217
54
9
27
149
91
234
58
113
207
242
110
95
198
10
175
120
28
34

> <PUBCHEM_MMFF94_PARTIAL_CHARGES>
19
1 1.09
10 0.27
11 0.11
12 0.11
13 0.33
14 0.57
15 0.36
16 0.57
18 0.3
2 -0.65
3 -0.65
32 0.37
36 0.37
4 -0.57
5 -0.57
6 -0.81
7 -0.73
8 -0.73
9 0.27

> <PUBCHEM_EFFECTIVE_ROTOR_COUNT>
9

> <PUBCHEM_PHARMACOPHORE_FEATURES>
9
1 2 acceptor
1 20 hydrophobe
1 3 acceptor
1 4 acceptor
1 5 acceptor
1 6 cation
1 7 donor
1 8 donor
6 1 6 9 10 11 12 rings

> <PUBCHEM_HEAVY_ATOM_COUNT>
20

> <PUBCHEM_ATOM_DEF_STEREO_COUNT>
0

> <PUBCHEM_ATOM_UDEF_STEREO_COUNT>
1

> <PUBCHEM_BOND_DEF_STEREO_COUNT>
0

> <PUBCHEM_BOND_UDEF_STEREO_COUNT>
0

> <PUBCHEM_ISOTOPIC_ATOM_COUNT>
0

> <PUBCHEM_COMPONENT_COUNT>
1

> <PUBCHEM_CACTVS_TAUTO_COUNT>
4

> <PUBCHEM_CONFORMER_ID>
02D04CA600000003

> <PUBCHEM_MMFF94_ENERGY>
23.2803

> <PUBCHEM_FEATURE_SELFOVERLAP>
45.686

> <PUBCHEM_SHAPE_MULTIPOLES>
377.02
11.51
3.26
1.16
6.05
1.1
-0.05
6.06
-1.11
-4
0.66
-0.08
0.29
-1.06

> <PUBCHEM_SHAPE_SELFOVERLAP>
727.009

> <PUBCHEM_SHAPE_VOLUME>
229.8

> <PUBCHEM_COORDINATE_TYPE>
2
5
10

$$$$

