12110
  -OEChem-06261206323D

 25 26  0     0  0  0  0  0  0999 V2000
    1.2209    1.4381   -0.2790 O   0  0  0  0  0  0  0  0  0  0  0  0
   -4.8300    0.0647    0.6601 O   0  5  0  0  0  0  0  0  0  0  0  0
   -4.2250   -1.6695   -0.5424 O   0  0  0  0  0  0  0  0  0  0  0  0
   -3.9620   -0.5818    0.0253 N   0  3  0  0  0  0  0  0  0  0  0  0
   -0.0453    0.9443   -0.2043 C   0  0  0  0  0  0  0  0  0  0  0  0
    2.2685    0.5585   -0.0632 C   0  0  0  0  0  0  0  0  0  0  0  0
   -1.0277    1.6466    0.4938 C   0  0  0  0  0  0  0  0  0  0  0  0
   -0.3608   -0.2632   -0.8270 C   0  0  0  0  0  0  0  0  0  0  0  0
   -2.6411   -0.0662   -0.0536 C   0  0  0  0  0  0  0  0  0  0  0  0
   -2.3256    1.1412    0.5693 C   0  0  0  0  0  0  0  0  0  0  0  0
   -1.6588   -0.7685   -0.7517 C   0  0  0  0  0  0  0  0  0  0  0  0
    2.1991   -0.3244    0.9992 C   0  0  0  0  0  0  0  0  0  0  0  0
    3.3577    0.5862   -0.9152 C   0  0  0  0  0  0  0  0  0  0  0  0
    3.2548   -1.2097    1.2171 C   0  0  0  0  0  0  0  0  0  0  0  0
    4.4133   -0.2992   -0.6974 C   0  0  0  0  0  0  0  0  0  0  0  0
    4.3619   -1.1971    0.3688 C   0  0  0  0  0  0  0  0  0  0  0  0
   -0.7872    2.5876    0.9810 H   0  0  0  0  0  0  0  0  0  0  0  0
    0.3782   -0.8196   -1.3975 H   0  0  0  0  0  0  0  0  0  0  0  0
   -3.0648    1.7152    1.1222 H   0  0  0  0  0  0  0  0  0  0  0  0
   -1.8696   -1.7097   -1.2531 H   0  0  0  0  0  0  0  0  0  0  0  0
    1.3596   -0.3378    1.6880 H   0  0  0  0  0  0  0  0  0  0  0  0
    3.3991    1.2845   -1.7456 H   0  0  0  0  0  0  0  0  0  0  0  0
    3.2175   -1.9051    2.0505 H   0  0  0  0  0  0  0  0  0  0  0  0
    5.2755   -0.2892   -1.3579 H   0  0  0  0  0  0  0  0  0  0  0  0
    5.1845   -1.8855    0.5392 H   0  0  0  0  0  0  0  0  0  0  0  0
  1  5  1  0  0  0  0
  1  6  1  0  0  0  0
  2  4  1  0  0  0  0
  3  4  2  0  0  0  0
  4  9  1  0  0  0  0
  5  7  2  0  0  0  0
  5  8  1  0  0  0  0
  6 12  2  0  0  0  0
  6 13  1  0  0  0  0
  7 10  1  0  0  0  0
  7 17  1  0  0  0  0
  8 11  2  0  0  0  0
  8 18  1  0  0  0  0
  9 10  2  0  0  0  0
  9 11  1  0  0  0  0
 10 19  1  0  0  0  0
 11 20  1  0  0  0  0
 12 14  1  0  0  0  0
 12 21  1  0  0  0  0
 13 15  2  0  0  0  0
 13 22  1  0  0  0  0
 14 16  2  0  0  0  0
 14 23  1  0  0  0  0
 15 16  1  0  0  0  0
 15 24  1  0  0  0  0
 16 25  1  0  0  0  0
M  CHG  2   2  -1   4   1
M  END
> <PUBCHEM_COMPOUND_CID>
12110

> <PUBCHEM_CONFORMER_RMSD>
0.6

> <PUBCHEM_CONFORMER_DIVERSEORDER>
1
2
3

> <PUBCHEM_MMFF94_PARTIAL_CHARGES>
25
1 -0.17
10 -0.15
11 -0.15
12 -0.15
13 -0.15
14 -0.15
15 -0.15
16 -0.15
17 0.15
18 0.15
19 0.15
2 -0.52
20 0.15
21 0.15
22 0.15
23 0.15
24 0.15
25 0.15
3 -0.52
4 0.91
5 0.08
6 0.08
7 -0.15
8 -0.15
9 0.13

> <PUBCHEM_EFFECTIVE_ROTOR_COUNT>
3

> <PUBCHEM_PHARMACOPHORE_FEATURES>
6
1 1 acceptor
1 2 acceptor
1 2 anion
1 3 acceptor
6 5 7 8 9 10 11 rings
6 6 12 13 14 15 16 rings

> <PUBCHEM_HEAVY_ATOM_COUNT>
16

> <PUBCHEM_ATOM_DEF_STEREO_COUNT>
0

> <PUBCHEM_ATOM_UDEF_STEREO_COUNT>
0

> <PUBCHEM_BOND_DEF_STEREO_COUNT>
0

> <PUBCHEM_BOND_UDEF_STEREO_COUNT>
0

> <PUBCHEM_ISOTOPIC_ATOM_COUNT>
0

> <PUBCHEM_COMPONENT_COUNT>
1

> <PUBCHEM_CACTVS_TAUTO_COUNT>
1

> <PUBCHEM_CONFORMER_ID>
00002F4E00000001

> <PUBCHEM_MMFF94_ENERGY>
57.3431

> <PUBCHEM_FEATURE_SELFOVERLAP>
30.528

> <PUBCHEM_SHAPE_FINGERPRINT>
10062212 137 18261395512377070783
11046707 91 18407761447340046261
11132069 177 17022624165352880341
11543360 7 16630242515636688895
11578080 2 18198648625447738556
12119455 92 14634869777484863221
12236239 1 18341889710495059916
12616999 72 17203608181821642322
12633257 1 16081670927744375962
13167823 11 18343862225480382347
13581323 91 18040719186132705612
13675066 3 16588022415896875429
13760787 19 18202002165918203301
13760787 5 18343301444701730053
14576447 43 18273778250952115066
15188451 53 17023200279618915399
15239191 94 18412548725425939042
15375358 24 14261349141809989556
15375462 189 18342741827479374130
15653759 3 16877947161189739920
16752209 62 18265070165761735229
17804303 29 17967813838306560953
17834072 33 18342453729784587684
18186145 218 14477245976496269293
18222031 100 17895200952679614229
18915474 69 18272087175934885846
19049666 15 16082761754879460828
19422 9 18342172314990088560
200 152 17632297899656161720
20281475 54 18342744017627910187
20291156 8 18411421700100436864
20645477 70 16415201217256543554
21267235 1 18340196471151962478
22169311 14 15647058144501108966
2255824 54 18272083839088266420
22646028 28 18341896311569636994
22854114 59 15647053763375887164
23402539 116 17603873316892418565
23559900 14 17531239544074853876
2838139 119 5544650686551070515
2871803 45 17489872661010278442
351380 180 4678819424081780539
351380 3 18412543206419623379
4028521 119 12319739176049560407
42 15 18040715878812734854
465052 167 18339071606300778151
474 4 17985541157614594716
5104073 3 18114458955852206331
7364860 26 18115590323258288464
94968 8 18131353012137212290

> <PUBCHEM_SHAPE_MULTIPOLES>
306.68
9.21
1.46
1.02
1.91
0.07
-0.06
-3.68
-0.33
0.33
-0.08
-0.48
-0.11
-1

> <PUBCHEM_SHAPE_SELFOVERLAP>
665.454

> <PUBCHEM_SHAPE_VOLUME>
168.4

> <PUBCHEM_COORDINATE_TYPE>
2
5
10

$$$$

