13673
  -OEChem-06241222392D

 31 31  0     0  0  0  0  0  0999 V2000
    2.6630    0.0000    0.0000 Cl  0  5  0  0  0  0  0  0  0  0  0  0
    1.3106    2.8090    0.0000 O   0  0  0  0  0  0  0  0  0  0  0  0
    4.3494    4.1750    0.0000 N   0  3  0  0  0  0  0  0  0  0  0  0
    2.2617    2.5000    0.0000 N   0  0  0  0  0  0  0  0  0  0  0  0
    3.4834    4.6750    0.0000 C   0  0  0  0  0  0  0  0  0  0  0  0
    5.2155    4.6750    0.0000 C   0  0  0  0  0  0  0  0  0  0  0  0
    3.4834    5.6750    0.0000 C   0  0  0  0  0  0  0  0  0  0  0  0
    5.2155    5.6750    0.0000 C   0  0  0  0  0  0  0  0  0  0  0  0
    4.3494    6.1750    0.0000 C   0  0  0  0  0  0  0  0  0  0  0  0
    3.8494    3.3090    0.0000 C   0  0  0  0  0  0  0  0  0  0  0  0
    2.8494    3.3090    0.0000 C   0  0  0  0  0  0  0  0  0  0  0  0
    2.2617    4.1180    0.0000 C   0  0  0  0  0  0  0  0  0  0  0  0
    1.3106    3.8090    0.0000 C   0  0  0  0  0  0  0  0  0  0  0  0
    0.5016    4.3968    0.0000 C   0  0  0  0  0  0  0  0  0  0  0  0
    4.6594    3.6381    0.0000 H   0  0  0  0  0  0  0  0  0  0  0  0
    2.8728    4.7827    0.0000 H   0  0  0  0  0  0  0  0  0  0  0  0
    3.2714    4.0924    0.0000 H   0  0  0  0  0  0  0  0  0  0  0  0
    5.4275    4.0924    0.0000 H   0  0  0  0  0  0  0  0  0  0  0  0
    5.8261    4.7827    0.0000 H   0  0  0  0  0  0  0  0  0  0  0  0
    3.2714    6.2576    0.0000 H   0  0  0  0  0  0  0  0  0  0  0  0
    2.8728    5.5674    0.0000 H   0  0  0  0  0  0  0  0  0  0  0  0
    5.8261    5.5674    0.0000 H   0  0  0  0  0  0  0  0  0  0  0  0
    5.4275    6.2576    0.0000 H   0  0  0  0  0  0  0  0  0  0  0  0
    4.7480    6.6500    0.0000 H   0  0  0  0  0  0  0  0  0  0  0  0
    3.9509    6.6500    0.0000 H   0  0  0  0  0  0  0  0  0  0  0  0
    3.7418    2.6984    0.0000 H   0  0  0  0  0  0  0  0  0  0  0  0
    4.4321    3.0970    0.0000 H   0  0  0  0  0  0  0  0  0  0  0  0
    2.4532    4.7077    0.0000 H   0  0  0  0  0  0  0  0  0  0  0  0
    0.8660    4.8984    0.0000 H   0  0  0  0  0  0  0  0  0  0  0  0
    0.0000    4.7612    0.0000 H   0  0  0  0  0  0  0  0  0  0  0  0
    0.1372    3.8952    0.0000 H   0  0  0  0  0  0  0  0  0  0  0  0
  2  4  1  0  0  0  0
  2 13  1  0  0  0  0
  3  5  1  0  0  0  0
  3  6  1  0  0  0  0
  3 10  1  0  0  0  0
  3 15  1  0  0  0  0
  4 11  2  0  0  0  0
  5  7  1  0  0  0  0
  5 16  1  0  0  0  0
  5 17  1  0  0  0  0
  6  8  1  0  0  0  0
  6 18  1  0  0  0  0
  6 19  1  0  0  0  0
  7  9  1  0  0  0  0
  7 20  1  0  0  0  0
  7 21  1  0  0  0  0
  8  9  1  0  0  0  0
  8 22  1  0  0  0  0
  8 23  1  0  0  0  0
  9 24  1  0  0  0  0
  9 25  1  0  0  0  0
 10 11  1  0  0  0  0
 10 26  1  0  0  0  0
 10 27  1  0  0  0  0
 11 12  1  0  0  0  0
 12 13  2  0  0  0  0
 12 28  1  0  0  0  0
 13 14  1  0  0  0  0
 14 29  1  0  0  0  0
 14 30  1  0  0  0  0
 14 31  1  0  0  0  0
M  CHG  2   1  -1   3   1
M  END
> <PUBCHEM_COMPOUND_CID>
13673

> <PUBCHEM_COMPOUND_CANONICALIZED>
1

> <PUBCHEM_CACTVS_COMPLEXITY>
157

> <PUBCHEM_CACTVS_HBOND_ACCEPTOR>
3

> <PUBCHEM_CACTVS_HBOND_DONOR>
1

> <PUBCHEM_CACTVS_ROTATABLE_BOND>
2

> <PUBCHEM_CACTVS_SUBSKEYS>
AAADceBzIAAEAAAAAAAAAAAAAAAAAWAAAAAsAAAAAAAAAAABgAAAHgAUAAAACAzBlgQyhJPQAACpAaRyQgCAAAAkIgAgGKE+bFoAZhoAgZMUEYhmEBiISUI0AAAAAAAAAAAAAAAAAAAAAAAAAAAAAAAAAA==

> <PUBCHEM_IUPAC_OPENEYE_NAME>
5-methyl-3-(piperidin-1-ium-1-ylmethyl)isoxazole chloride

> <PUBCHEM_IUPAC_CAS_NAME>
5-methyl-3-(1-piperidin-1-iumylmethyl)isoxazole chloride

> <PUBCHEM_IUPAC_NAME>
5-methyl-3-(piperidin-1-ium-1-ylmethyl)-1,2-oxazole chloride

> <PUBCHEM_IUPAC_SYSTEMATIC_NAME>
5-methyl-3-(piperidin-1-ium-1-ylmethyl)-1,2-oxazole chloride

> <PUBCHEM_IUPAC_TRADITIONAL_NAME>
5-methyl-3-(piperidin-1-ium-1-ylmethyl)isoxazole chloride

> <PUBCHEM_IUPAC_INCHI>
InChI=1S/C10H16N2O.ClH/c1-9-7-10(11-13-9)8-12-5-3-2-4-6-12;/h7H,2-6,8H2,1H3;1H

> <PUBCHEM_IUPAC_INCHIKEY>
GGIPSMNIEMSXNN-UHFFFAOYSA-N

> <PUBCHEM_EXACT_MASS>
216.102941

> <PUBCHEM_MOLECULAR_FORMULA>
C10H17ClN2O

> <PUBCHEM_MOLECULAR_WEIGHT>
216.70778

> <PUBCHEM_OPENEYE_CAN_SMILES>
CC1=CC(=NO1)C[NH+]2CCCCC2.[Cl-]

> <PUBCHEM_OPENEYE_ISO_SMILES>
CC1=CC(=NO1)C[NH+]2CCCCC2.[Cl-]

> <PUBCHEM_CACTVS_TPSA>
30.5

> <PUBCHEM_MONOISOTOPIC_WEIGHT>
216.102941

> <PUBCHEM_TOTAL_CHARGE>
0

> <PUBCHEM_HEAVY_ATOM_COUNT>
14

> <PUBCHEM_ATOM_DEF_STEREO_COUNT>
0

> <PUBCHEM_ATOM_UDEF_STEREO_COUNT>
0

> <PUBCHEM_BOND_DEF_STEREO_COUNT>
0

> <PUBCHEM_BOND_UDEF_STEREO_COUNT>
0

> <PUBCHEM_ISOTOPIC_ATOM_COUNT>
0

> <PUBCHEM_COMPONENT_COUNT>
2

> <PUBCHEM_CACTVS_TAUTO_COUNT>
1

> <PUBCHEM_COORDINATE_TYPE>
1
5
255

> <PUBCHEM_BONDANNOTATIONS>
11  12  8
12  13  8
2  13  8
2  4  8
4  11  8

$$$$

