17395301
  -OEChem-06241222492D

 53 55  0     0  0  0  0  0  0999 V2000
    6.3301    3.2500    0.0000 F   0  0  0  0  0  0  0  0  0  0  0  0
    2.8660   -5.7500    0.0000 O   0  0  0  0  0  0  0  0  0  0  0  0
    3.7320    4.7500    0.0000 O   0  0  0  0  0  0  0  0  0  0  0  0
    2.8660    0.2500    0.0000 N   0  0  0  0  0  0  0  0  0  0  0  0
    2.8660   -1.7500    0.0000 N   0  0  0  0  0  0  0  0  0  0  0  0
    4.5981    3.2500    0.0000 N   0  0  0  0  0  0  0  0  0  0  0  0
    3.7320   -0.2500    0.0000 C   0  0  0  0  0  0  0  0  0  0  0  0
    2.0000   -0.2500    0.0000 C   0  0  0  0  0  0  0  0  0  0  0  0
    3.7320   -1.2500    0.0000 C   0  0  0  0  0  0  0  0  0  0  0  0
    2.0000   -1.2500    0.0000 C   0  0  0  0  0  0  0  0  0  0  0  0
    2.8660    1.2500    0.0000 C   0  0  0  0  0  0  0  0  0  0  0  0
    3.7320    1.7500    0.0000 C   0  0  0  0  0  0  0  0  0  0  0  0
    2.8660   -2.7500    0.0000 C   0  0  0  0  0  0  0  0  0  0  0  0
    3.7320    2.7500    0.0000 C   0  0  0  0  0  0  0  0  0  0  0  0
    2.0000   -3.2500    0.0000 C   0  0  0  0  0  0  0  0  0  0  0  0
    3.7320   -3.2500    0.0000 C   0  0  0  0  0  0  0  0  0  0  0  0
    2.0000   -4.2500    0.0000 C   0  0  0  0  0  0  0  0  0  0  0  0
    3.7320   -4.2500    0.0000 C   0  0  0  0  0  0  0  0  0  0  0  0
    2.8660   -4.7500    0.0000 C   0  0  0  0  0  0  0  0  0  0  0  0
    4.5981    4.2500    0.0000 C   0  0  0  0  0  0  0  0  0  0  0  0
    5.4641    4.7500    0.0000 C   0  0  0  0  0  0  0  0  0  0  0  0
    6.3301    4.2500    0.0000 C   0  0  0  0  0  0  0  0  0  0  0  0
    5.4641    5.7500    0.0000 C   0  0  0  0  0  0  0  0  0  0  0  0
    2.0000   -6.2500    0.0000 C   0  0  0  0  0  0  0  0  0  0  0  0
    7.1962    4.7500    0.0000 C   0  0  0  0  0  0  0  0  0  0  0  0
    6.3301    6.2500    0.0000 C   0  0  0  0  0  0  0  0  0  0  0  0
    7.1962    5.7500    0.0000 C   0  0  0  0  0  0  0  0  0  0  0  0
    4.3426   -0.3577    0.0000 H   0  0  0  0  0  0  0  0  0  0  0  0
    3.9441    0.3326    0.0000 H   0  0  0  0  0  0  0  0  0  0  0  0
    1.7880    0.3326    0.0000 H   0  0  0  0  0  0  0  0  0  0  0  0
    1.3894   -0.3577    0.0000 H   0  0  0  0  0  0  0  0  0  0  0  0
    1.3894   -1.1423    0.0000 H   0  0  0  0  0  0  0  0  0  0  0  0
    1.7880   -1.8326    0.0000 H   0  0  0  0  0  0  0  0  0  0  0  0
    3.9441   -1.8326    0.0000 H   0  0  0  0  0  0  0  0  0  0  0  0
    4.3426   -1.1423    0.0000 H   0  0  0  0  0  0  0  0  0  0  0  0
    2.6540    1.8326    0.0000 H   0  0  0  0  0  0  0  0  0  0  0  0
    2.2554    1.1423    0.0000 H   0  0  0  0  0  0  0  0  0  0  0  0
    3.9441    1.1674    0.0000 H   0  0  0  0  0  0  0  0  0  0  0  0
    4.3426    1.8577    0.0000 H   0  0  0  0  0  0  0  0  0  0  0  0
    3.5200    3.3326    0.0000 H   0  0  0  0  0  0  0  0  0  0  0  0
    3.1215    2.6423    0.0000 H   0  0  0  0  0  0  0  0  0  0  0  0
    1.4631   -2.9400    0.0000 H   0  0  0  0  0  0  0  0  0  0  0  0
    4.2690   -2.9400    0.0000 H   0  0  0  0  0  0  0  0  0  0  0  0
    5.1350    2.9400    0.0000 H   0  0  0  0  0  0  0  0  0  0  0  0
    1.4631   -4.5600    0.0000 H   0  0  0  0  0  0  0  0  0  0  0  0
    4.2690   -4.5600    0.0000 H   0  0  0  0  0  0  0  0  0  0  0  0
    4.9272    6.0600    0.0000 H   0  0  0  0  0  0  0  0  0  0  0  0
    1.6900   -5.7131    0.0000 H   0  0  0  0  0  0  0  0  0  0  0  0
    1.4631   -6.5600    0.0000 H   0  0  0  0  0  0  0  0  0  0  0  0
    2.3100   -6.7869    0.0000 H   0  0  0  0  0  0  0  0  0  0  0  0
    7.7331    4.4400    0.0000 H   0  0  0  0  0  0  0  0  0  0  0  0
    6.3301    6.8700    0.0000 H   0  0  0  0  0  0  0  0  0  0  0  0
    7.7331    6.0600    0.0000 H   0  0  0  0  0  0  0  0  0  0  0  0
  1 22  1  0  0  0  0
  2 19  1  0  0  0  0
  2 24  1  0  0  0  0
  3 20  2  0  0  0  0
  4  7  1  0  0  0  0
  4  8  1  0  0  0  0
  4 11  1  0  0  0  0
  5  9  1  0  0  0  0
  5 10  1  0  0  0  0
  5 13  1  0  0  0  0
  6 14  1  0  0  0  0
  6 20  1  0  0  0  0
  6 44  1  0  0  0  0
  7  9  1  0  0  0  0
  7 28  1  0  0  0  0
  7 29  1  0  0  0  0
  8 10  1  0  0  0  0
  8 30  1  0  0  0  0
  8 31  1  0  0  0  0
  9 34  1  0  0  0  0
  9 35  1  0  0  0  0
 10 32  1  0  0  0  0
 10 33  1  0  0  0  0
 11 12  1  0  0  0  0
 11 36  1  0  0  0  0
 11 37  1  0  0  0  0
 12 14  1  0  0  0  0
 12 38  1  0  0  0  0
 12 39  1  0  0  0  0
 13 15  2  0  0  0  0
 13 16  1  0  0  0  0
 14 40  1  0  0  0  0
 14 41  1  0  0  0  0
 15 17  1  0  0  0  0
 15 42  1  0  0  0  0
 16 18  2  0  0  0  0
 16 43  1  0  0  0  0
 17 19  2  0  0  0  0
 17 45  1  0  0  0  0
 18 19  1  0  0  0  0
 18 46  1  0  0  0  0
 20 21  1  0  0  0  0
 21 22  1  0  0  0  0
 21 23  2  0  0  0  0
 22 25  2  0  0  0  0
 23 26  1  0  0  0  0
 23 47  1  0  0  0  0
 24 48  1  0  0  0  0
 24 49  1  0  0  0  0
 24 50  1  0  0  0  0
 25 27  1  0  0  0  0
 25 51  1  0  0  0  0
 26 27  2  0  0  0  0
 26 52  1  0  0  0  0
 27 53  1  0  0  0  0
M  END
> <PUBCHEM_COMPOUND_CID>
17395301

> <PUBCHEM_COMPOUND_CANONICALIZED>
1

> <PUBCHEM_CACTVS_COMPLEXITY>
449

> <PUBCHEM_CACTVS_HBOND_ACCEPTOR>
5

> <PUBCHEM_CACTVS_HBOND_DONOR>
1

> <PUBCHEM_CACTVS_ROTATABLE_BOND>
7

> <PUBCHEM_CACTVS_SUBSKEYS>
AAADceB7MQAAAAAAAAAAAAAAAAAAAAAAAAA8YIAAAAAAAAABQAAAHwAQAAAADAzBmA4yxoPABACIAiVSUACCCAAlIgAIiIEObMgMZjLE9ZuUMShk1hHI6Ye4yACOAEAAAAAAAAAAgAAAAAAAAAAAAAAAAA==

> <PUBCHEM_IUPAC_OPENEYE_NAME>
2-fluoro-N-[3-[4-(4-methoxyphenyl)piperazin-1-yl]propyl]benzamide

> <PUBCHEM_IUPAC_CAS_NAME>
2-fluoro-N-[3-[4-(4-methoxyphenyl)-1-piperazinyl]propyl]benzamide

> <PUBCHEM_IUPAC_NAME>
2-fluoro-N-[3-[4-(4-methoxyphenyl)piperazin-1-yl]propyl]benzamide

> <PUBCHEM_IUPAC_SYSTEMATIC_NAME>
2-fluoranyl-N-[3-[4-(4-methoxyphenyl)piperazin-1-yl]propyl]benzamide

> <PUBCHEM_IUPAC_TRADITIONAL_NAME>
2-fluoro-N-[3-[4-(4-methoxyphenyl)piperazino]propyl]benzamide

> <PUBCHEM_IUPAC_INCHI>
InChI=1S/C21H26FN3O2/c1-27-18-9-7-17(8-10-18)25-15-13-24(14-16-25)12-4-11-23-21(26)19-5-2-3-6-20(19)22/h2-3,5-10H,4,11-16H2,1H3,(H,23,26)

> <PUBCHEM_IUPAC_INCHIKEY>
OAAOEUVHOSQMQA-UHFFFAOYSA-N

> <PUBCHEM_XLOGP3_AA>
3.3

> <PUBCHEM_EXACT_MASS>
371.200905

> <PUBCHEM_MOLECULAR_FORMULA>
C21H26FN3O2

> <PUBCHEM_MOLECULAR_WEIGHT>
371.448443

> <PUBCHEM_OPENEYE_CAN_SMILES>
COC1=CC=C(C=C1)N2CCN(CC2)CCCNC(=O)C3=CC=CC=C3F

> <PUBCHEM_OPENEYE_ISO_SMILES>
COC1=CC=C(C=C1)N2CCN(CC2)CCCNC(=O)C3=CC=CC=C3F

> <PUBCHEM_CACTVS_TPSA>
44.8

> <PUBCHEM_MONOISOTOPIC_WEIGHT>
371.200905

> <PUBCHEM_TOTAL_CHARGE>
0

> <PUBCHEM_HEAVY_ATOM_COUNT>
27

> <PUBCHEM_ATOM_DEF_STEREO_COUNT>
0

> <PUBCHEM_ATOM_UDEF_STEREO_COUNT>
0

> <PUBCHEM_BOND_DEF_STEREO_COUNT>
0

> <PUBCHEM_BOND_UDEF_STEREO_COUNT>
0

> <PUBCHEM_ISOTOPIC_ATOM_COUNT>
0

> <PUBCHEM_COMPONENT_COUNT>
1

> <PUBCHEM_CACTVS_TAUTO_COUNT>
2

> <PUBCHEM_COORDINATE_TYPE>
1
5
255

> <PUBCHEM_BONDANNOTATIONS>
13  15  8
13  16  8
15  17  8
16  18  8
17  19  8
18  19  8
21  22  8
21  23  8
22  25  8
23  26  8
25  27  8
26  27  8

$$$$

