13957
  -OEChem-06241222413D

 50 53  0     1  0  0  0  0  0999 V2000
   -3.9063    0.2891    1.8753 O   0  0  0  0  0  0  0  0  0  0  0  0
    5.7078    0.0270    1.1363 O   0  0  0  0  0  0  0  0  0  0  0  0
   -2.5693    0.5370   -0.1557 C   0  0  1  0  0  0  0  0  0  0  0  0
   -1.8413   -0.7776    0.1948 C   0  0  2  0  0  0  0  0  0  0  0  0
   -0.4311   -0.8620   -0.4125 C   0  0  1  0  0  0  0  0  0  0  0  0
   -3.9735    0.2393    0.4434 C   0  0  1  0  0  0  0  0  0  0  0  0
   -2.8429   -1.8682   -0.1833 C   0  0  0  0  0  0  0  0  0  0  0  0
   -4.2306   -1.2308    0.0348 C   0  0  0  0  0  0  0  0  0  0  0  0
   -1.7696    1.6724    0.5074 C   0  0  0  0  0  0  0  0  0  0  0  0
    0.3534    0.4442   -0.1958 C   0  0  0  0  0  0  0  0  0  0  0  0
    1.8675    0.4121   -0.5522 C   0  0  2  0  0  0  0  0  0  0  0  0
    0.3164   -2.0620    0.1851 C   0  0  0  0  0  0  0  0  0  0  0  0
   -2.6544    0.7975   -1.6845 C   0  0  0  0  0  0  0  0  0  0  0  0
   -0.2857    1.5572    0.2389 C   0  0  0  0  0  0  0  0  0  0  0  0
    1.7197   -2.1758   -0.3887 C   0  0  0  0  0  0  0  0  0  0  0  0
    2.5131   -0.9176   -0.1327 C   0  0  0  0  0  0  0  0  0  0  0  0
   -5.0952    1.1780    0.0121 C   0  0  0  0  0  0  0  0  0  0  0  0
    2.6394    1.5887    0.1189 C   0  0  0  0  0  0  0  0  0  0  0  0
    1.9860    0.5515   -2.0884 C   0  0  0  0  0  0  0  0  0  0  0  0
    4.1535    1.4691    0.0274 C   0  0  0  0  0  0  0  0  0  0  0  0
    3.7330   -1.0239    0.4218 C   0  0  0  0  0  0  0  0  0  0  0  0
    4.6102    0.1547    0.5976 C   0  0  0  0  0  0  0  0  0  0  0  0
   -1.7235   -0.8291    1.2900 H   0  0  0  0  0  0  0  0  0  0  0  0
   -0.5186   -1.0246   -1.4948 H   0  0  0  0  0  0  0  0  0  0  0  0
   -2.7170   -2.7623    0.4360 H   0  0  0  0  0  0  0  0  0  0  0  0
   -2.7295   -2.1745   -1.2294 H   0  0  0  0  0  0  0  0  0  0  0  0
   -4.8028   -1.2973   -0.8978 H   0  0  0  0  0  0  0  0  0  0  0  0
   -4.7826   -1.7798    0.8058 H   0  0  0  0  0  0  0  0  0  0  0  0
   -1.9047    1.6858    1.5949 H   0  0  0  0  0  0  0  0  0  0  0  0
   -2.1271    2.6416    0.1388 H   0  0  0  0  0  0  0  0  0  0  0  0
   -0.2281   -2.9889   -0.0309 H   0  0  0  0  0  0  0  0  0  0  0  0
    0.3717   -1.9734    1.2784 H   0  0  0  0  0  0  0  0  0  0  0  0
   -3.1748    1.7403   -1.8878 H   0  0  0  0  0  0  0  0  0  0  0  0
   -1.6697    0.8844   -2.1535 H   0  0  0  0  0  0  0  0  0  0  0  0
   -3.1922    0.0053   -2.2143 H   0  0  0  0  0  0  0  0  0  0  0  0
    0.2577    2.4837    0.3934 H   0  0  0  0  0  0  0  0  0  0  0  0
    1.6686   -2.3581   -1.4690 H   0  0  0  0  0  0  0  0  0  0  0  0
    2.2087   -3.0546    0.0495 H   0  0  0  0  0  0  0  0  0  0  0  0
   -4.8558    2.2133    0.2789 H   0  0  0  0  0  0  0  0  0  0  0  0
   -5.2912    1.1310   -1.0630 H   0  0  0  0  0  0  0  0  0  0  0  0
   -6.0287    0.9306    0.5307 H   0  0  0  0  0  0  0  0  0  0  0  0
    2.3725    1.6399    1.1847 H   0  0  0  0  0  0  0  0  0  0  0  0
    2.3500    2.5482   -0.3285 H   0  0  0  0  0  0  0  0  0  0  0  0
   -4.7708    0.0167    2.2277 H   0  0  0  0  0  0  0  0  0  0  0  0
    1.6026    1.5217   -2.4270 H   0  0  0  0  0  0  0  0  0  0  0  0
    3.0251    0.4716   -2.4270 H   0  0  0  0  0  0  0  0  0  0  0  0
    1.4200   -0.2218   -2.6204 H   0  0  0  0  0  0  0  0  0  0  0  0
    4.6119    2.2773    0.6082 H   0  0  0  0  0  0  0  0  0  0  0  0
    4.5088    1.5489   -1.0044 H   0  0  0  0  0  0  0  0  0  0  0  0
    4.1472   -1.9832    0.7144 H   0  0  0  0  0  0  0  0  0  0  0  0
  1  6  1  0  0  0  0
  1 44  1  0  0  0  0
  2 22  2  0  0  0  0
  3  4  1  0  0  0  0
  3  6  1  0  0  0  0
  3  9  1  0  0  0  0
  3 13  1  0  0  0  0
  4  5  1  0  0  0  0
  4  7  1  0  0  0  0
  4 23  1  0  0  0  0
  5 10  1  0  0  0  0
  5 12  1  0  0  0  0
  5 24  1  0  0  0  0
  6  8  1  0  0  0  0
  6 17  1  0  0  0  0
  7  8  1  0  0  0  0
  7 25  1  0  0  0  0
  7 26  1  0  0  0  0
  8 27  1  0  0  0  0
  8 28  1  0  0  0  0
  9 14  1  0  0  0  0
  9 29  1  0  0  0  0
  9 30  1  0  0  0  0
 10 11  1  0  0  0  0
 10 14  2  0  0  0  0
 11 16  1  0  0  0  0
 11 18  1  0  0  0  0
 11 19  1  0  0  0  0
 12 15  1  0  0  0  0
 12 31  1  0  0  0  0
 12 32  1  0  0  0  0
 13 33  1  0  0  0  0
 13 34  1  0  0  0  0
 13 35  1  0  0  0  0
 14 36  1  0  0  0  0
 15 16  1  0  0  0  0
 15 37  1  0  0  0  0
 15 38  1  0  0  0  0
 16 21  2  0  0  0  0
 17 39  1  0  0  0  0
 17 40  1  0  0  0  0
 17 41  1  0  0  0  0
 18 20  1  0  0  0  0
 18 42  1  0  0  0  0
 18 43  1  0  0  0  0
 19 45  1  0  0  0  0
 19 46  1  0  0  0  0
 19 47  1  0  0  0  0
 20 22  1  0  0  0  0
 20 48  1  0  0  0  0
 20 49  1  0  0  0  0
 21 22  1  0  0  0  0
 21 50  1  0  0  0  0
M  END
> <PUBCHEM_COMPOUND_CID>
13957

> <PUBCHEM_CONFORMER_RMSD>
0.6

> <PUBCHEM_CONFORMER_DIVERSEORDER>
6
28
24
35
48
34
3
37
29
7
23
4
36
40
10
39
45
16
27
41
18
43
22
42
32
1
5
33
11
13
17
38
14
20
8
47
26
21
30
12
46
44
31
15
2
9
25
19

> <PUBCHEM_MMFF94_PARTIAL_CHARGES>
16
1 -0.68
10 -0.28
11 0.28
14 -0.29
15 0.14
16 -0.28
2 -0.57
20 0.06
21 -0.14
22 0.49
36 0.15
44 0.4
5 0.14
50 0.15
6 0.28
9 0.14

> <PUBCHEM_EFFECTIVE_ROTOR_COUNT>
1.6

> <PUBCHEM_PHARMACOPHORE_FEATURES>
7
1 1 acceptor
1 1 donor
1 2 acceptor
5 3 4 6 7 8 rings
6 11 16 18 20 21 22 rings
6 3 4 5 9 10 14 rings
6 5 10 11 12 15 16 rings

> <PUBCHEM_HEAVY_ATOM_COUNT>
22

> <PUBCHEM_ATOM_DEF_STEREO_COUNT>
0

> <PUBCHEM_ATOM_UDEF_STEREO_COUNT>
5

> <PUBCHEM_BOND_DEF_STEREO_COUNT>
0

> <PUBCHEM_BOND_UDEF_STEREO_COUNT>
0

> <PUBCHEM_ISOTOPIC_ATOM_COUNT>
0

> <PUBCHEM_COMPONENT_COUNT>
1

> <PUBCHEM_CACTVS_TAUTO_COUNT>
5

> <PUBCHEM_CONFORMER_ID>
0000368500000006

> <PUBCHEM_MMFF94_ENERGY>
66.8839

> <PUBCHEM_FEATURE_SELFOVERLAP>
35.619

> <PUBCHEM_SHAPE_FINGERPRINT>
10062212 137 18340211799589710947
10967382 1 18409447011587310534
11132069 177 18410849971455551575
12011746 2 18409447003767398926
12236239 1 18060138726401255216
12251169 10 18413111658600268394
12403259 415 18343026592591450892
12403260 363 18266186036629726414
12403814 3 17989488515873680325
12507557 5 18411986853303710729
12553582 1 18337653279181905397
12633257 1 18335708217474454416
13140716 1 18337671888895228600
13214271 11 18113901550680328127
13224815 77 18408036303819639639
13675066 3 18131346418956159515
14178342 30 18411129277305115585
14223421 5 18336826519151295830
14341114 176 18408884070767142954
14341114 328 18259981544307261312
14787075 74 18338803299387627594
14790565 3 18123461684009854308
15163728 17 14636251932805427025
15196674 1 18410012113234847122
15375358 24 18040712576146421213
15536298 74 18261387888419840622
15788980 27 17775288257050556997
16945 1 18336259158234864975
17349148 13 18202563964799173314
17492 89 18411138064708755986
17980427 23 18341615858937665716
1813 80 17203327853864950718
18186145 218 18408317791834194244
19050596 39 18410853248225279112
19784866 9 18410856576883021058
200 152 18261120660150077943
20715895 44 18127136496798867493
20871999 31 8862949376622667410
21033648 29 18200333077192522908
21267235 1 18410567366660043758
21421861 104 18057608865629942410
21637258 2 15195300746078297296
22182313 1 18057607765991623063
22854114 111 18341889692798115630
22854114 59 18410854364948515618
23402539 116 18187655677789826340
23557571 272 17604147017245288743
23559900 14 18260824930250927318
26918003 58 18343023297934497985
2838139 119 15503521248708706072
296302 2 16805323296824693406
335352 9 18410011082516672974
34797466 226 15213301876690353889
34934 24 18334580174378729431
350125 39 18411982447442952324
3680242 22 18339641251875768162
4340502 62 18341324570345636059
474 4 18333449833238293552
5104073 3 18411418375753526643
633830 44 17968091997911605700
7364860 26 18189329233598993134
9709674 26 18410004442434390719

> <PUBCHEM_SHAPE_MULTIPOLES>
441.01
9.88
2.02
1.19
1.8
0.55
0.33
-1.38
-2.72
-0.03
0.01
-0.08
-0.26
-0.1

> <PUBCHEM_SHAPE_SELFOVERLAP>
953.221

> <PUBCHEM_SHAPE_VOLUME>
241.2

> <PUBCHEM_COORDINATE_TYPE>
2
5
10

$$$$

