13942
  -OEChem-06241222413D

 46 47  0     0  0  0  0  0  0999 V2000
   -0.1772   -0.7836   -1.2642 O   0  0  0  0  0  0  0  0  0  0  0  0
   -0.5642   -1.5702    0.9623 O   0  0  0  0  0  0  0  0  0  0  0  0
    1.4582   -2.5367   -0.2814 O   0  0  0  0  0  0  0  0  0  0  0  0
    3.3847    1.1445    0.0327 N   0  3  0  0  0  0  0  0  0  0  0  0
    1.4495   -0.2738    0.4842 C   0  0  0  0  0  0  0  0  0  0  0  0
    2.3448    0.8430    1.0343 C   0  0  0  0  0  0  0  0  0  0  0  0
    0.7561    0.1922   -0.8030 C   0  0  0  0  0  0  0  0  0  0  0  0
    0.3561   -0.6231    1.5025 C   0  0  0  0  0  0  0  0  0  0  0  0
    2.3108   -1.5174    0.1937 C   0  0  0  0  0  0  0  0  0  0  0  0
   -1.1594   -1.1580   -0.2813 C   0  0  0  0  0  0  0  0  0  0  0  0
    4.3208    2.2615    0.5246 C   0  0  0  0  0  0  0  0  0  0  0  0
    4.2467   -0.0950   -0.2613 C   0  0  0  0  0  0  0  0  0  0  0  0
    2.7589    1.6069   -1.2942 C   0  0  0  0  0  0  0  0  0  0  0  0
   -2.2706   -0.1194   -0.1082 C   0  0  0  0  0  0  0  0  0  0  0  0
   -1.8143   -2.4295   -0.8443 C   0  0  0  0  0  0  0  0  0  0  0  0
   -2.9674   -0.0478    1.0940 C   0  0  0  0  0  0  0  0  0  0  0  0
   -2.5758    0.7462   -1.1539 C   0  0  0  0  0  0  0  0  0  0  0  0
   -3.9798    0.8985    1.2521 C   0  0  0  0  0  0  0  0  0  0  0  0
   -3.5881    1.6929   -0.9957 C   0  0  0  0  0  0  0  0  0  0  0  0
   -4.2901    1.7689    0.2073 C   0  0  0  0  0  0  0  0  0  0  0  0
    2.8390    0.5408    1.9663 H   0  0  0  0  0  0  0  0  0  0  0  0
    1.7754    1.7604    1.2299 H   0  0  0  0  0  0  0  0  0  0  0  0
    0.2195    1.1381   -0.6845 H   0  0  0  0  0  0  0  0  0  0  0  0
    1.3376    0.1516   -1.7012 H   0  0  0  0  0  0  0  0  0  0  0  0
    0.7924   -1.0658    2.4051 H   0  0  0  0  0  0  0  0  0  0  0  0
   -0.1889    0.2729    1.8219 H   0  0  0  0  0  0  0  0  0  0  0  0
    2.8355   -1.9143    1.0677 H   0  0  0  0  0  0  0  0  0  0  0  0
    2.8833   -1.5247   -0.7085 H   0  0  0  0  0  0  0  0  0  0  0  0
    3.7134    3.1532    0.7067 H   0  0  0  0  0  0  0  0  0  0  0  0
    4.7894    1.9235    1.4539 H   0  0  0  0  0  0  0  0  0  0  0  0
    5.0800    2.4639   -0.2374 H   0  0  0  0  0  0  0  0  0  0  0  0
    5.2686    0.3010   -0.3809 H   0  0  0  0  0  0  0  0  0  0  0  0
    4.3915   -0.7235    0.6199 H   0  0  0  0  0  0  0  0  0  0  0  0
    4.1183   -0.4887   -1.2736 H   0  0  0  0  0  0  0  0  0  0  0  0
    2.8482    0.8683   -2.0938 H   0  0  0  0  0  0  0  0  0  0  0  0
    1.8562    2.1998   -1.1387 H   0  0  0  0  0  0  0  0  0  0  0  0
    3.4511    2.3700   -1.6841 H   0  0  0  0  0  0  0  0  0  0  0  0
   -2.2850   -2.2469   -1.8173 H   0  0  0  0  0  0  0  0  0  0  0  0
   -1.0673   -3.2172   -0.9962 H   0  0  0  0  0  0  0  0  0  0  0  0
   -2.5688   -2.8347   -0.1600 H   0  0  0  0  0  0  0  0  0  0  0  0
    1.0001   -2.9250    0.4832 H   0  0  0  0  0  0  0  0  0  0  0  0
   -2.7511   -0.7222    1.9174 H   0  0  0  0  0  0  0  0  0  0  0  0
   -2.0508    0.6981   -2.1036 H   0  0  0  0  0  0  0  0  0  0  0  0
   -4.5283    0.9562    2.1877 H   0  0  0  0  0  0  0  0  0  0  0  0
   -3.8318    2.3689   -1.8101 H   0  0  0  0  0  0  0  0  0  0  0  0
   -5.0792    2.5051    0.3299 H   0  0  0  0  0  0  0  0  0  0  0  0
  1  7  1  0  0  0  0
  1 10  1  0  0  0  0
  2  8  1  0  0  0  0
  2 10  1  0  0  0  0
  3  9  1  0  0  0  0
  3 41  1  0  0  0  0
  4  6  1  0  0  0  0
  4 11  1  0  0  0  0
  4 12  1  0  0  0  0
  4 13  1  0  0  0  0
  5  6  1  0  0  0  0
  5  7  1  0  0  0  0
  5  8  1  0  0  0  0
  5  9  1  0  0  0  0
  6 21  1  0  0  0  0
  6 22  1  0  0  0  0
  7 23  1  0  0  0  0
  7 24  1  0  0  0  0
  8 25  1  0  0  0  0
  8 26  1  0  0  0  0
  9 27  1  0  0  0  0
  9 28  1  0  0  0  0
 10 14  1  0  0  0  0
 10 15  1  0  0  0  0
 11 29  1  0  0  0  0
 11 30  1  0  0  0  0
 11 31  1  0  0  0  0
 12 32  1  0  0  0  0
 12 33  1  0  0  0  0
 12 34  1  0  0  0  0
 13 35  1  0  0  0  0
 13 36  1  0  0  0  0
 13 37  1  0  0  0  0
 14 16  2  0  0  0  0
 14 17  1  0  0  0  0
 15 38  1  0  0  0  0
 15 39  1  0  0  0  0
 15 40  1  0  0  0  0
 16 18  1  0  0  0  0
 16 42  1  0  0  0  0
 17 19  2  0  0  0  0
 17 43  1  0  0  0  0
 18 20  2  0  0  0  0
 18 44  1  0  0  0  0
 19 20  1  0  0  0  0
 19 45  1  0  0  0  0
 20 46  1  0  0  0  0
M  CHG  1   4   1
M  END
> <PUBCHEM_COMPOUND_CID>
13942

> <PUBCHEM_CONFORMER_RMSD>
0.8

> <PUBCHEM_CONFORMER_DIVERSEORDER>
1
2

> <PUBCHEM_MMFF94_PARTIAL_CHARGES>
24
1 -0.56
10 0.7
11 0.5
12 0.5
13 0.5
14 -0.14
16 -0.15
17 -0.15
18 -0.15
19 -0.15
2 -0.56
20 -0.15
3 -0.68
4 -1.01
41 0.4
42 0.15
43 0.15
44 0.15
45 0.15
46 0.15
6 0.5
7 0.28
8 0.28
9 0.28

> <PUBCHEM_EFFECTIVE_ROTOR_COUNT>
5.2

> <PUBCHEM_PHARMACOPHORE_FEATURES>
7
1 1 acceptor
1 2 acceptor
1 3 acceptor
1 3 donor
1 4 cation
6 1 2 5 7 8 10 rings
6 14 16 17 18 19 20 rings

> <PUBCHEM_HEAVY_ATOM_COUNT>
20

> <PUBCHEM_ATOM_DEF_STEREO_COUNT>
0

> <PUBCHEM_ATOM_UDEF_STEREO_COUNT>
0

> <PUBCHEM_BOND_DEF_STEREO_COUNT>
0

> <PUBCHEM_BOND_UDEF_STEREO_COUNT>
0

> <PUBCHEM_ISOTOPIC_ATOM_COUNT>
0

> <PUBCHEM_COMPONENT_COUNT>
1

> <PUBCHEM_CACTVS_TAUTO_COUNT>
1

> <PUBCHEM_CONFORMER_ID>
0000367600000001

> <PUBCHEM_MMFF94_ENERGY>
149.7085

> <PUBCHEM_FEATURE_SELFOVERLAP>
35.579

> <PUBCHEM_SHAPE_FINGERPRINT>
10498660 4 18333737909611893241
10618630 7 9871745810613414369
10646746 165 18262519187279811840
10863032 1 18335140881826634603
10948715 1 18410291402105073562
11132069 177 18130516236312037876
11715629 250 18341333314207986628
11806522 49 8646764500176318636
12173636 292 18264493892556310126
12251169 10 16200425875698359081
12422481 6 18055944158545707776
12491281 212 18408888399471756434
12507560 40 17988076802867455377
12633257 1 15554441899259075593
12670546 177 14418142794065625880
12892183 10 17060338552294265753
13134695 92 17825682302472460170
13140716 1 18412830200413628234
13544653 18 10159697997185195768
13583140 156 16271661021900750573
13675066 3 18201998815849097704
13693222 15 13110968608342902313
13705890 14 6699511810524274427
14123255 52 18409731754960494825
14178342 30 17774437166574184642
14251764 30 13182199452207025536
14787075 74 17916576528239144681
15209294 21 18200883885294140152
15342168 16 18336260228288759649
15375462 189 12175319436427667831
15534591 1 18339644442899402867
15775835 57 18409731772504165985
16945 1 18190185761530654626
1741750 31 18260550000197590651
17834072 14 7276829061000517632
1813 80 17101705654128107358
18186145 218 18334570282557317862
18981168 100 18043551441975598929
193927 3 9655299279926830232
19784866 34 18259988149998637376
19862831 5 17240478109251078522
200 152 9079112245904439793
20645477 56 18261950730793143360
21501502 16 18337402568771391654
21503847 285 18124029293801824953
21524375 3 18412545392647446363
21713013 43 5689300314418825601
21731228 192 18202562856470900739
21731516 1 11239993477801998133
21756936 100 17487319462193962812
21864079 5 17916582021233713164
22094290 62 18337958998911242378
22907989 373 17750528269237665341
231179 274 18410292544714008856
23175994 123 17835798973252923679
23227448 37 18269836415413673917
23402539 116 16370723755704721440
23493267 7 17530677684710770758
23557571 272 17968937457480176981
23559900 14 16700609232948810051
25 1 18409165528316142506
27216 239 18272369750708126081
283562 15 18049453547384993359
474 4 18130787824105104524
49207404 50 17988626515689563721
4921388 177 15068630357643438957
5104073 3 18341900658387667232
633830 44 17968088763421312981
7832392 63 18411985741176109084
7970288 3 10087644805458124536

> <PUBCHEM_SHAPE_MULTIPOLES>
389
8.04
2.37
1.34
0.49
0.54
-0.07
-5.79
-0.59
0.35
0.34
-0.43
-0.13
-0.02

> <PUBCHEM_SHAPE_SELFOVERLAP>
812.558

> <PUBCHEM_SHAPE_VOLUME>
219.4

> <PUBCHEM_COORDINATE_TYPE>
2
5
10

$$$$

