12723
  -OEChem-06261207172D

 18 17  0     0  0  0  0  0  0999 V2000
    2.5369   -0.8170    0.0000 O   0  0  0  0  0  0  0  0  0  0  0  0
    3.4030   -0.3170    0.0000 C   0  0  0  0  0  0  0  0  0  0  0  0
    2.9030    0.5490    0.0000 C   0  0  0  0  0  0  0  0  0  0  0  0
    3.9030   -1.1830    0.0000 C   0  0  0  0  0  0  0  0  0  0  0  0
    4.2690    0.1830    0.0000 C   0  0  0  0  0  0  0  0  0  0  0  0
    5.1350    0.6830    0.0000 C   0  0  0  0  0  0  0  0  0  0  0  0
    6.0010    1.1830    0.0000 C   0  0  0  0  0  0  0  0  0  0  0  0
    6.8671    0.6830    0.0000 C   0  0  0  0  0  0  0  0  0  0  0  0
    3.3660   -1.4930    0.0000 H   0  0  0  0  0  0  0  0  0  0  0  0
    4.2130   -1.7200    0.0000 H   0  0  0  0  0  0  0  0  0  0  0  0
    4.4399   -0.8730    0.0000 H   0  0  0  0  0  0  0  0  0  0  0  0
    3.4399    0.8590    0.0000 H   0  0  0  0  0  0  0  0  0  0  0  0
    2.5930    1.0860    0.0000 H   0  0  0  0  0  0  0  0  0  0  0  0
    2.3660    0.2390    0.0000 H   0  0  0  0  0  0  0  0  0  0  0  0
    2.0000   -0.5070    0.0000 H   0  0  0  0  0  0  0  0  0  0  0  0
    6.0010    1.8030    0.0000 H   0  0  0  0  0  0  0  0  0  0  0  0
    6.8671    0.0630    0.0000 H   0  0  0  0  0  0  0  0  0  0  0  0
    7.4040    0.9930    0.0000 H   0  0  0  0  0  0  0  0  0  0  0  0
  1  2  1  0  0  0  0
  1 15  1  0  0  0  0
  2  3  1  0  0  0  0
  2  4  1  0  0  0  0
  2  5  1  0  0  0  0
  3 12  1  0  0  0  0
  3 13  1  0  0  0  0
  3 14  1  0  0  0  0
  4  9  1  0  0  0  0
  4 10  1  0  0  0  0
  4 11  1  0  0  0  0
  5  6  3  0  0  0  0
  6  7  1  0  0  0  0
  7  8  2  0  0  0  0
  7 16  1  0  0  0  0
  8 17  1  0  0  0  0
  8 18  1  0  0  0  0
M  END
> <PUBCHEM_COMPOUND_CID>
12723

> <PUBCHEM_COMPOUND_CANONICALIZED>
1

> <PUBCHEM_CACTVS_COMPLEXITY>
142

> <PUBCHEM_CACTVS_HBOND_ACCEPTOR>
1

> <PUBCHEM_CACTVS_HBOND_DONOR>
1

> <PUBCHEM_CACTVS_ROTATABLE_BOND>
1

> <PUBCHEM_CACTVS_SUBSKEYS>
AAADccBgIAAAAAAAAAAAAAAAAAAAAAAAAAAAAAAAAAAAAAAAAAAAGgAACAAADESAgAACAAAAAgDAECBCAAgAAAAAAAAIAAAAAAAAAAAAAAAAAAAAAAAAAAAAAAAAAAAAAAAAAAAAAAAAAAAAAAAAAAAAAA==

> <PUBCHEM_IUPAC_OPENEYE_NAME>
2-methylhex-5-en-3-yn-2-ol

> <PUBCHEM_IUPAC_CAS_NAME>
2-methyl-2-hex-5-en-3-ynol

> <PUBCHEM_IUPAC_NAME>
2-methylhex-5-en-3-yn-2-ol

> <PUBCHEM_IUPAC_SYSTEMATIC_NAME>
2-methylhex-5-en-3-yn-2-ol

> <PUBCHEM_IUPAC_TRADITIONAL_NAME>
2-methylhex-5-en-3-yn-2-ol

> <PUBCHEM_IUPAC_INCHI>
InChI=1S/C7H10O/c1-4-5-6-7(2,3)8/h4,8H,1H2,2-3H3

> <PUBCHEM_IUPAC_INCHIKEY>
OYWGYGPXPDGOGH-UHFFFAOYSA-N

> <PUBCHEM_XLOGP3_AA>
1.2

> <PUBCHEM_EXACT_MASS>
110.073165

> <PUBCHEM_MOLECULAR_FORMULA>
C7H10O

> <PUBCHEM_MOLECULAR_WEIGHT>
110.1537

> <PUBCHEM_OPENEYE_CAN_SMILES>
CC(C)(C#CC=C)O

> <PUBCHEM_OPENEYE_ISO_SMILES>
CC(C)(C#CC=C)O

> <PUBCHEM_CACTVS_TPSA>
20.2

> <PUBCHEM_MONOISOTOPIC_WEIGHT>
110.073165

> <PUBCHEM_TOTAL_CHARGE>
0

> <PUBCHEM_HEAVY_ATOM_COUNT>
8

> <PUBCHEM_ATOM_DEF_STEREO_COUNT>
0

> <PUBCHEM_ATOM_UDEF_STEREO_COUNT>
0

> <PUBCHEM_BOND_DEF_STEREO_COUNT>
0

> <PUBCHEM_BOND_UDEF_STEREO_COUNT>
0

> <PUBCHEM_ISOTOPIC_ATOM_COUNT>
0

> <PUBCHEM_COMPONENT_COUNT>
1

> <PUBCHEM_CACTVS_TAUTO_COUNT>
1

> <PUBCHEM_COORDINATE_TYPE>
1
5
255

$$$$

