11937
  -OEChem-06261206183D

 26 28  0     0  0  0  0  0  0999 V2000
    4.6367    0.9781   -0.0001 N   0  0  0  0  0  0  0  0  0  0  0  0
    0.9413    0.5466    0.0000 C   0  0  0  0  0  0  0  0  0  0  0  0
    0.8401   -0.8619   -0.0001 C   0  0  0  0  0  0  0  0  0  0  0  0
   -1.5026    0.7222    0.0000 C   0  0  0  0  0  0  0  0  0  0  0  0
   -1.6037   -0.6863    0.0000 C   0  0  0  0  0  0  0  0  0  0  0  0
   -0.2314    1.3203    0.0000 C   0  0  0  0  0  0  0  0  0  0  0  0
   -0.4310   -1.4600   -0.0001 C   0  0  0  0  0  0  0  0  0  0  0  0
    2.2128    1.1439    0.0000 C   0  0  0  0  0  0  0  0  0  0  0  0
    2.0132   -1.6348    0.0000 C   0  0  0  0  0  0  0  0  0  0  0  0
   -2.6756    1.4951    0.0000 C   0  0  0  0  0  0  0  0  0  0  0  0
   -2.8751   -1.2837    0.0001 C   0  0  0  0  0  0  0  0  0  0  0  0
    3.3679    0.3617    0.0001 C   0  0  0  0  0  0  0  0  0  0  0  0
    3.2682   -1.0259    0.0000 C   0  0  0  0  0  0  0  0  0  0  0  0
   -3.9306    0.8860    0.0000 C   0  0  0  0  0  0  0  0  0  0  0  0
   -4.0303   -0.5015    0.0000 C   0  0  0  0  0  0  0  0  0  0  0  0
   -0.1535    2.4076    0.0000 H   0  0  0  0  0  0  0  0  0  0  0  0
   -0.5092   -2.5473   -0.0001 H   0  0  0  0  0  0  0  0  0  0  0  0
    2.3010    2.2294    0.0000 H   0  0  0  0  0  0  0  0  0  0  0  0
    1.9589   -2.7216    0.0000 H   0  0  0  0  0  0  0  0  0  0  0  0
   -2.6213    2.5818    0.0000 H   0  0  0  0  0  0  0  0  0  0  0  0
   -2.9768   -2.3670    0.0001 H   0  0  0  0  0  0  0  0  0  0  0  0
    4.1603   -1.6471    0.0001 H   0  0  0  0  0  0  0  0  0  0  0  0
   -4.8294    1.4957   -0.0001 H   0  0  0  0  0  0  0  0  0  0  0  0
   -5.0070   -0.9765    0.0000 H   0  0  0  0  0  0  0  0  0  0  0  0
    4.7096    1.9868    0.0006 H   0  0  0  0  0  0  0  0  0  0  0  0
    5.4746    0.4118    0.0005 H   0  0  0  0  0  0  0  0  0  0  0  0
  1 12  1  0  0  0  0
  1 25  1  0  0  0  0
  1 26  1  0  0  0  0
  2  3  1  0  0  0  0
  2  6  2  0  0  0  0
  2  8  1  0  0  0  0
  3  7  2  0  0  0  0
  3  9  1  0  0  0  0
  4  5  1  0  0  0  0
  4  6  1  0  0  0  0
  4 10  2  0  0  0  0
  5  7  1  0  0  0  0
  5 11  2  0  0  0  0
  6 16  1  0  0  0  0
  7 17  1  0  0  0  0
  8 12  2  0  0  0  0
  8 18  1  0  0  0  0
  9 13  2  0  0  0  0
  9 19  1  0  0  0  0
 10 14  1  0  0  0  0
 10 20  1  0  0  0  0
 11 15  1  0  0  0  0
 11 21  1  0  0  0  0
 12 13  1  0  0  0  0
 13 22  1  0  0  0  0
 14 15  2  0  0  0  0
 14 23  1  0  0  0  0
 15 24  1  0  0  0  0
M  END
> <PUBCHEM_COMPOUND_CID>
11937

> <PUBCHEM_CONFORMER_RMSD>
0.4

> <PUBCHEM_CONFORMER_DIVERSEORDER>
1

> <PUBCHEM_MMFF94_PARTIAL_CHARGES>
22
1 -0.9
10 -0.15
11 -0.15
12 0.1
13 -0.15
14 -0.15
15 -0.15
16 0.15
17 0.15
18 0.15
19 0.15
20 0.15
21 0.15
22 0.15
23 0.15
24 0.15
25 0.4
26 0.4
6 -0.15
7 -0.15
8 -0.15
9 -0.15

> <PUBCHEM_EFFECTIVE_ROTOR_COUNT>
0

> <PUBCHEM_PHARMACOPHORE_FEATURES>
5
1 1 cation
1 1 donor
6 2 3 4 5 6 7 rings
6 2 3 8 9 12 13 rings
6 4 5 10 11 14 15 rings

> <PUBCHEM_HEAVY_ATOM_COUNT>
15

> <PUBCHEM_ATOM_DEF_STEREO_COUNT>
0

> <PUBCHEM_ATOM_UDEF_STEREO_COUNT>
0

> <PUBCHEM_BOND_DEF_STEREO_COUNT>
0

> <PUBCHEM_BOND_UDEF_STEREO_COUNT>
0

> <PUBCHEM_ISOTOPIC_ATOM_COUNT>
0

> <PUBCHEM_COMPONENT_COUNT>
1

> <PUBCHEM_CACTVS_TAUTO_COUNT>
1

> <PUBCHEM_CONFORMER_ID>
00002EA100000001

> <PUBCHEM_MMFF94_ENERGY>
56.8554

> <PUBCHEM_FEATURE_SELFOVERLAP>
25.423

> <PUBCHEM_SHAPE_FINGERPRINT>
10608611 8 18410859888318896573
10967382 1 18410856589704619110
10980938 120 18410855486156662322
11132069 177 18410860966297399353
11471102 20 18410578404773090614
11806522 49 18339645538432613487
12032990 46 18410568504926357135
13140716 1 18195242441297400795
13214271 11 18410576154389686071
13221675 6 18410293605433754911
13380535 76 18411981351508756666
14144814 61 18411419535452698587
14325111 11 18410856581130534753
14897335 6 18410294717867136406
15196674 1 18410855481618900487
15219456 202 18409165540863382183
15442244 35 18122063366837119282
15536298 74 18335138721843005254
15775835 57 18409164415544910344
16945 1 18338516309540851559
18186145 218 18131351955032126918
18522853 276 18409167705584947641
200 152 18113626672958019965
20510252 161 18260827133110292313
20645477 70 18262520406618260927
21267235 1 18410846676946830983
21501502 16 18410576235746073275
2334 1 18410856564082573347
23402539 116 18335710415969922951
23402655 69 18335145327534439709
23463225 33 18413108385228553390
23559900 14 18263648523329465154
2748010 2 18410572920084035903
296302 2 18273494567723741876
3312278 4 18408601452943983665
335352 9 18050286173938944351
34934 24 18411144644808656055
474 4 17130699471321253844
4990 188 18040986367774662812
5104073 3 18411136965174984219
528886 8 18410298012043749050
53812653 166 18334580126838755224
69090 78 18334581243688527135
7364860 26 18263362654432574614
77779 3 18410009957166545782
8809292 202 18272365352434859179
9709674 26 18410568479046179894

> <PUBCHEM_SHAPE_MULTIPOLES>
303.71
7.45
1.74
0.61
0.93
0.14
0
-1
0
0
0
-0.03
0.01
0

> <PUBCHEM_SHAPE_SELFOVERLAP>
687.39

> <PUBCHEM_SHAPE_VOLUME>
159.2

> <PUBCHEM_COORDINATE_TYPE>
2
5
10

$$$$

