3315
  -OEChem-06251223202D

 86 91  0     0  0  0  0  0  0999 V2000
   19.9798   -4.2892    0.0000 S   0  0  0  0  0  0  0  0  0  0  0  0
    5.1350    4.2892    0.0000 S   0  0  0  0  0  0  0  0  0  0  0  0
   21.7118   -1.2892    0.0000 S   0  0  0  0  0  0  0  0  0  0  0  0
    3.4030    1.2892    0.0000 S   0  0  0  0  0  0  0  0  0  0  0  0
   18.2314   -0.2546    0.0000 O   0  0  0  0  0  0  0  0  0  0  0  0
    6.8834    0.2546    0.0000 O   0  0  0  0  0  0  0  0  0  0  0  0
   19.9798   -5.2892    0.0000 O   0  0  0  0  0  0  0  0  0  0  0  0
    5.1350    5.2892    0.0000 O   0  0  0  0  0  0  0  0  0  0  0  0
   22.5779   -0.7892    0.0000 O   0  0  0  0  0  0  0  0  0  0  0  0
    2.5369    0.7892    0.0000 O   0  0  0  0  0  0  0  0  0  0  0  0
   20.9798   -4.2892    0.0000 O   0  0  0  0  0  0  0  0  0  0  0  0
   18.9798   -4.2892    0.0000 O   0  0  0  0  0  0  0  0  0  0  0  0
    4.1350    4.2892    0.0000 O   0  0  0  0  0  0  0  0  0  0  0  0
    6.1350    4.2892    0.0000 O   0  0  0  0  0  0  0  0  0  0  0  0
   22.2118   -2.1552    0.0000 O   0  0  0  0  0  0  0  0  0  0  0  0
   21.2118   -0.4231    0.0000 O   0  0  0  0  0  0  0  0  0  0  0  0
    2.9030    2.1552    0.0000 O   0  0  0  0  0  0  0  0  0  0  0  0
    3.9030    0.4231    0.0000 O   0  0  0  0  0  0  0  0  0  0  0  0
   19.9798   -0.2892    0.0000 N   0  0  0  0  0  0  0  0  0  0  0  0
    5.1350    0.2892    0.0000 N   0  0  0  0  0  0  0  0  0  0  0  0
   16.4497   -1.2650    0.0000 N   0  0  0  0  0  0  0  0  0  0  0  0
    8.6651    1.2650    0.0000 N   0  0  0  0  0  0  0  0  0  0  0  0
   15.5817   -1.7617    0.0000 N   0  0  0  0  0  0  0  0  0  0  0  0
    9.5331    1.7617    0.0000 N   0  0  0  0  0  0  0  0  0  0  0  0
   19.1138   -1.7892    0.0000 C   0  0  0  0  0  0  0  0  0  0  0  0
    6.0010    1.7892    0.0000 C   0  0  0  0  0  0  0  0  0  0  0  0
   19.1138   -2.7892    0.0000 C   0  0  0  0  0  0  0  0  0  0  0  0
    6.0010    2.7892    0.0000 C   0  0  0  0  0  0  0  0  0  0  0  0
   19.9798   -3.2892    0.0000 C   0  0  0  0  0  0  0  0  0  0  0  0
    5.1350    3.2892    0.0000 C   0  0  0  0  0  0  0  0  0  0  0  0
   19.9798   -1.2892    0.0000 C   0  0  0  0  0  0  0  0  0  0  0  0
    5.1350    1.2892    0.0000 C   0  0  0  0  0  0  0  0  0  0  0  0
   20.8458   -1.7892    0.0000 C   0  0  0  0  0  0  0  0  0  0  0  0
    4.2690    1.7892    0.0000 C   0  0  0  0  0  0  0  0  0  0  0  0
   20.8458   -2.7892    0.0000 C   0  0  0  0  0  0  0  0  0  0  0  0
    4.2690    2.7892    0.0000 C   0  0  0  0  0  0  0  0  0  0  0  0
   18.2198   -1.2545    0.0000 C   0  0  0  0  0  0  0  0  0  0  0  0
    6.8950    1.2545    0.0000 C   0  0  0  0  0  0  0  0  0  0  0  0
   18.2198   -3.3238    0.0000 C   0  0  0  0  0  0  0  0  0  0  0  0
    6.8950    3.3238    0.0000 C   0  0  0  0  0  0  0  0  0  0  0  0
   17.3138   -1.7683    0.0000 C   0  0  0  0  0  0  0  0  0  0  0  0
    7.8010    1.7683    0.0000 C   0  0  0  0  0  0  0  0  0  0  0  0
   17.3138   -2.8100    0.0000 C   0  0  0  0  0  0  0  0  0  0  0  0
    7.8010    2.8100    0.0000 C   0  0  0  0  0  0  0  0  0  0  0  0
   12.9895   -0.2517    0.0000 C   0  0  0  0  0  0  0  0  0  0  0  0
   12.1254    0.2517    0.0000 C   0  0  0  0  0  0  0  0  0  0  0  0
   13.8497   -1.7550    0.0000 C   0  0  0  0  0  0  0  0  0  0  0  0
   11.2651    1.7550    0.0000 C   0  0  0  0  0  0  0  0  0  0  0  0
   14.7176   -1.2583    0.0000 C   0  0  0  0  0  0  0  0  0  0  0  0
   10.3972    1.2583    0.0000 C   0  0  0  0  0  0  0  0  0  0  0  0
   12.9856   -1.2517    0.0000 C   0  0  0  0  0  0  0  0  0  0  0  0
   12.1292    1.2517    0.0000 C   0  0  0  0  0  0  0  0  0  0  0  0
   13.8574    0.2450    0.0000 C   0  0  0  0  0  0  0  0  0  0  0  0
   11.2574   -0.2450    0.0000 C   0  0  0  0  0  0  0  0  0  0  0  0
   14.7215   -0.2583    0.0000 C   0  0  0  0  0  0  0  0  0  0  0  0
   10.3933    0.2583    0.0000 C   0  0  0  0  0  0  0  0  0  0  0  0
   13.8458   -2.7550    0.0000 C   0  0  0  0  0  0  0  0  0  0  0  0
   11.2690    2.7550    0.0000 C   0  0  0  0  0  0  0  0  0  0  0  0
   21.3828   -3.0992    0.0000 H   0  0  0  0  0  0  0  0  0  0  0  0
    3.7321    3.0992    0.0000 H   0  0  0  0  0  0  0  0  0  0  0  0
   18.2270   -3.9438    0.0000 H   0  0  0  0  0  0  0  0  0  0  0  0
    6.8878    3.9438    0.0000 H   0  0  0  0  0  0  0  0  0  0  0  0
   16.7780   -3.1220    0.0000 H   0  0  0  0  0  0  0  0  0  0  0  0
    8.3368    3.1220    0.0000 H   0  0  0  0  0  0  0  0  0  0  0  0
   19.4429    0.0208    0.0000 H   0  0  0  0  0  0  0  0  0  0  0  0
   20.5167    0.0208    0.0000 H   0  0  0  0  0  0  0  0  0  0  0  0
    5.6719   -0.0208    0.0000 H   0  0  0  0  0  0  0  0  0  0  0  0
    4.5981   -0.0208    0.0000 H   0  0  0  0  0  0  0  0  0  0  0  0
   17.6981    0.0616    0.0000 H   0  0  0  0  0  0  0  0  0  0  0  0
    7.4167   -0.0616    0.0000 H   0  0  0  0  0  0  0  0  0  0  0  0
   12.4475   -1.5596    0.0000 H   0  0  0  0  0  0  0  0  0  0  0  0
   12.6673    1.5596    0.0000 H   0  0  0  0  0  0  0  0  0  0  0  0
   13.8598    0.8650    0.0000 H   0  0  0  0  0  0  0  0  0  0  0  0
   11.2550   -0.8650    0.0000 H   0  0  0  0  0  0  0  0  0  0  0  0
   20.5167   -5.5992    0.0000 H   0  0  0  0  0  0  0  0  0  0  0  0
    4.5981    5.5992    0.0000 H   0  0  0  0  0  0  0  0  0  0  0  0
   15.2596    0.0496    0.0000 H   0  0  0  0  0  0  0  0  0  0  0  0
    9.8552   -0.0496    0.0000 H   0  0  0  0  0  0  0  0  0  0  0  0
   23.1148   -1.0992    0.0000 H   0  0  0  0  0  0  0  0  0  0  0  0
    2.0000    1.0992    0.0000 H   0  0  0  0  0  0  0  0  0  0  0  0
   13.2258   -2.7526    0.0000 H   0  0  0  0  0  0  0  0  0  0  0  0
   13.8434   -3.3750    0.0000 H   0  0  0  0  0  0  0  0  0  0  0  0
   14.4658   -2.7574    0.0000 H   0  0  0  0  0  0  0  0  0  0  0  0
   11.8890    2.7526    0.0000 H   0  0  0  0  0  0  0  0  0  0  0  0
   11.2714    3.3750    0.0000 H   0  0  0  0  0  0  0  0  0  0  0  0
   10.6490    2.7574    0.0000 H   0  0  0  0  0  0  0  0  0  0  0  0
  1  7  1  0  0  0  0
  1 11  2  0  0  0  0
  1 12  2  0  0  0  0
  1 29  1  0  0  0  0
  2  8  1  0  0  0  0
  2 13  2  0  0  0  0
  2 14  2  0  0  0  0
  2 30  1  0  0  0  0
  3  9  1  0  0  0  0
  3 15  2  0  0  0  0
  3 16  2  0  0  0  0
  3 33  1  0  0  0  0
  4 10  1  0  0  0  0
  4 17  2  0  0  0  0
  4 18  2  0  0  0  0
  4 34  1  0  0  0  0
  5 37  1  0  0  0  0
  5 69  1  0  0  0  0
  6 38  1  0  0  0  0
  6 70  1  0  0  0  0
  7 75  1  0  0  0  0
  8 76  1  0  0  0  0
  9 79  1  0  0  0  0
 10 80  1  0  0  0  0
 19 31  1  0  0  0  0
 19 65  1  0  0  0  0
 19 66  1  0  0  0  0
 20 32  1  0  0  0  0
 20 67  1  0  0  0  0
 20 68  1  0  0  0  0
 21 23  2  0  0  0  0
 21 41  1  0  0  0  0
 22 24  2  0  0  0  0
 22 42  1  0  0  0  0
 23 49  1  0  0  0  0
 24 50  1  0  0  0  0
 25 27  2  0  0  0  0
 25 31  1  0  0  0  0
 25 37  1  0  0  0  0
 26 28  2  0  0  0  0
 26 32  1  0  0  0  0
 26 38  1  0  0  0  0
 27 29  1  0  0  0  0
 27 39  1  0  0  0  0
 28 30  1  0  0  0  0
 28 40  1  0  0  0  0
 29 35  2  0  0  0  0
 30 36  2  0  0  0  0
 31 33  2  0  0  0  0
 32 34  2  0  0  0  0
 33 35  1  0  0  0  0
 34 36  1  0  0  0  0
 35 59  1  0  0  0  0
 36 60  1  0  0  0  0
 37 41  2  0  0  0  0
 38 42  2  0  0  0  0
 39 43  2  0  0  0  0
 39 61  1  0  0  0  0
 40 44  2  0  0  0  0
 40 62  1  0  0  0  0
 41 43  1  0  0  0  0
 42 44  1  0  0  0  0
 43 63  1  0  0  0  0
 44 64  1  0  0  0  0
 45 46  1  0  0  0  0
 45 51  2  0  0  0  0
 45 53  1  0  0  0  0
 46 52  2  0  0  0  0
 46 54  1  0  0  0  0
 47 49  2  0  0  0  0
 47 51  1  0  0  0  0
 47 57  1  0  0  0  0
 48 50  2  0  0  0  0
 48 52  1  0  0  0  0
 48 58  1  0  0  0  0
 49 55  1  0  0  0  0
 50 56  1  0  0  0  0
 51 71  1  0  0  0  0
 52 72  1  0  0  0  0
 53 55  2  0  0  0  0
 53 73  1  0  0  0  0
 54 56  2  0  0  0  0
 54 74  1  0  0  0  0
 55 77  1  0  0  0  0
 56 78  1  0  0  0  0
 57 81  1  0  0  0  0
 57 82  1  0  0  0  0
 57 83  1  0  0  0  0
 58 84  1  0  0  0  0
 58 85  1  0  0  0  0
 58 86  1  0  0  0  0
M  END
> <PUBCHEM_COMPOUND_CID>
3315

> <PUBCHEM_COMPOUND_CANONICALIZED>
1

> <PUBCHEM_CACTVS_COMPLEXITY>
1840

> <PUBCHEM_CACTVS_HBOND_ACCEPTOR>
20

> <PUBCHEM_CACTVS_HBOND_DONOR>
8

> <PUBCHEM_CACTVS_ROTATABLE_BOND>
9

> <PUBCHEM_CACTVS_SUBSKEYS>
AAADceB/vABwAAAAAAAAAAAAAAAAAAAAAAAwYMGDAAAAAADBVAAAHgQYCAAADAyB2AAyx8BAAoKCAiRCQHDCAEAgIgAIiBwFbIgKJiKSkZOAcABmwBkI2AeQwPAOmAQDwEAeEQAwCAeAgDwiAAAAAAAAAA==

> <PUBCHEM_IUPAC_OPENEYE_NAME>
4-amino-6-[4-[4-[(8-amino-1-hydroxy-5,7-disulfo-2-naphthyl)azo]-3-methyl-phenyl]-2-methyl-phenyl]azo-5-hydroxy-naphthalene-1,3-disulfonic acid

> <PUBCHEM_IUPAC_CAS_NAME>
4-amino-6-[4-[4-[(8-amino-1-hydroxy-5,7-disulfo-2-naphthalenyl)azo]-3-methylphenyl]-2-methylphenyl]azo-5-hydroxynaphthalene-1,3-disulfonic acid

> <PUBCHEM_IUPAC_NAME>
4-amino-6-[[4-[4-[(8-amino-1-hydroxy-5,7-disulfonaphthalen-2-yl)diazenyl]-3-methylphenyl]-2-methylphenyl]diazenyl]-5-hydroxynaphthalene-1,3-disulfonic acid

> <PUBCHEM_IUPAC_SYSTEMATIC_NAME>
4-azanyl-6-[[4-[4-[(8-azanyl-1-oxidanyl-5,7-disulfo-naphthalen-2-yl)diazenyl]-3-methyl-phenyl]-2-methyl-phenyl]diazenyl]-5-oxidanyl-naphthalene-1,3-disulfonic acid

> <PUBCHEM_IUPAC_TRADITIONAL_NAME>
4-amino-6-[4-[4-[(8-amino-1-hydroxy-5,7-disulfo-2-naphthyl)azo]-3-methyl-phenyl]-2-methyl-phenyl]azo-5-hydroxy-naphthalene-1,3-disulfonic acid

> <PUBCHEM_IUPAC_INCHI>
InChI=1S/C34H28N6O14S4/c1-15-11-17(3-7-21(15)37-39-23-9-5-19-25(55(43,44)45)13-27(57(49,50)51)31(35)29(19)33(23)41)18-4-8-22(16(2)12-18)38-40-24-10-6-20-26(56(46,47)48)14-28(58(52,53)54)32(36)30(20)34(24)42/h3-14,41-42H,35-36H2,1-2H3,(H,43,44,45)(H,46,47,48)(H,49,50,51)(H,52,53,54)

> <PUBCHEM_IUPAC_INCHIKEY>
COXVTLYNGOIATD-UHFFFAOYSA-N

> <PUBCHEM_XLOGP3_AA>
4.4

> <PUBCHEM_EXACT_MASS>
872.054634

> <PUBCHEM_MOLECULAR_FORMULA>
C34H28N6O14S4

> <PUBCHEM_MOLECULAR_WEIGHT>
872.87792

> <PUBCHEM_OPENEYE_CAN_SMILES>
CC1=C(C=CC(=C1)C2=CC(=C(C=C2)N=NC3=C(C4=C(C=C3)C(=CC(=C4N)S(=O)(=O)O)S(=O)(=O)O)O)C)N=NC5=C(C6=C(C=C5)C(=CC(=C6N)S(=O)(=O)O)S(=O)(=O)O)O

> <PUBCHEM_OPENEYE_ISO_SMILES>
CC1=C(C=CC(=C1)C2=CC(=C(C=C2)N=NC3=C(C4=C(C=C3)C(=CC(=C4N)S(=O)(=O)O)S(=O)(=O)O)O)C)N=NC5=C(C6=C(C=C5)C(=CC(=C6N)S(=O)(=O)O)S(=O)(=O)O)O

> <PUBCHEM_CACTVS_TPSA>
393

> <PUBCHEM_MONOISOTOPIC_WEIGHT>
872.054634

> <PUBCHEM_TOTAL_CHARGE>
0

> <PUBCHEM_HEAVY_ATOM_COUNT>
58

> <PUBCHEM_ATOM_DEF_STEREO_COUNT>
0

> <PUBCHEM_ATOM_UDEF_STEREO_COUNT>
0

> <PUBCHEM_BOND_DEF_STEREO_COUNT>
0

> <PUBCHEM_BOND_UDEF_STEREO_COUNT>
0

> <PUBCHEM_ISOTOPIC_ATOM_COUNT>
0

> <PUBCHEM_COMPONENT_COUNT>
1

> <PUBCHEM_CACTVS_TAUTO_COUNT>
114

> <PUBCHEM_COORDINATE_TYPE>
1
5
255

> <PUBCHEM_BONDANNOTATIONS>
25  27  8
25  31  8
25  37  8
26  28  8
26  32  8
26  38  8
27  29  8
27  39  8
28  30  8
28  40  8
29  35  8
30  36  8
31  33  8
32  34  8
33  35  8
34  36  8
37  41  8
38  42  8
39  43  8
40  44  8
41  43  8
42  44  8
45  51  8
45  53  8
46  52  8
46  54  8
47  49  8
47  51  8
48  50  8
48  52  8
49  55  8
50  56  8
53  55  8
54  56  8

$$$$

