12936
  -OEChem-06261207333D

 52 54  0     0  0  0  0  0  0999 V2000
   -0.2660    1.8460   -1.1366 O   0  0  0  0  0  0  0  0  0  0  0  0
   -2.3322   -1.4962    1.3554 O   0  0  0  0  0  0  0  0  0  0  0  0
    2.2286   -1.1464    1.4097 O   0  0  0  0  0  0  0  0  0  0  0  0
   -1.3468    0.1389    0.0108 N   0  0  0  0  0  0  0  0  0  0  0  0
    1.0332    0.3294    0.0505 N   0  0  0  0  0  0  0  0  0  0  0  0
   -2.6238    0.7296   -0.3096 C   0  0  0  0  0  0  0  0  0  0  0  0
    2.2073    1.1190   -0.2332 C   0  0  0  0  0  0  0  0  0  0  0  0
   -3.4825   -0.2433   -1.1220 C   0  0  0  0  0  0  0  0  0  0  0  0
   -3.3432    1.1765    0.9653 C   0  0  0  0  0  0  0  0  0  0  0  0
    2.8191    1.6643    1.0599 C   0  0  0  0  0  0  0  0  0  0  0  0
    3.2258    0.2990   -1.0287 C   0  0  0  0  0  0  0  0  0  0  0  0
   -4.8594    0.3413   -1.4258 C   0  0  0  0  0  0  0  0  0  0  0  0
   -4.7212    1.7579    0.6595 C   0  0  0  0  0  0  0  0  0  0  0  0
    4.0941    2.4582    0.7874 C   0  0  0  0  0  0  0  0  0  0  0  0
    4.5011    1.0937   -1.2976 C   0  0  0  0  0  0  0  0  0  0  0  0
   -5.5740    0.7881   -0.1535 C   0  0  0  0  0  0  0  0  0  0  0  0
    5.1071    1.6395   -0.0077 C   0  0  0  0  0  0  0  0  0  0  0  0
   -0.0149   -1.7193    0.8697 C   0  0  0  0  0  0  0  0  0  0  0  0
   -0.1978    0.8367   -0.4265 C   0  0  0  0  0  0  0  0  0  0  0  0
   -1.3437   -1.0173    0.7975 C   0  0  0  0  0  0  0  0  0  0  0  0
    1.1908   -0.8198    0.8318 C   0  0  0  0  0  0  0  0  0  0  0  0
    0.0792   -2.7288   -0.2720 C   0  0  0  0  0  0  0  0  0  0  0  0
    1.3554   -3.5070   -0.2014 C   0  0  0  0  0  0  0  0  0  0  0  0
    2.2638   -3.5399   -1.1829 C   0  0  0  0  0  0  0  0  0  0  0  0
   -2.4868    1.6244   -0.9288 H   0  0  0  0  0  0  0  0  0  0  0  0
    1.9467    1.9863   -0.8515 H   0  0  0  0  0  0  0  0  0  0  0  0
   -2.9757   -0.4827   -2.0654 H   0  0  0  0  0  0  0  0  0  0  0  0
   -3.6301   -1.1988   -0.6085 H   0  0  0  0  0  0  0  0  0  0  0  0
   -3.4912    0.3727    1.6899 H   0  0  0  0  0  0  0  0  0  0  0  0
   -2.7399    1.9354    1.4797 H   0  0  0  0  0  0  0  0  0  0  0  0
    3.0753    0.8866    1.7831 H   0  0  0  0  0  0  0  0  0  0  0  0
    2.0922    2.3141    1.5637 H   0  0  0  0  0  0  0  0  0  0  0  0
    2.7851   -0.0118   -1.9843 H   0  0  0  0  0  0  0  0  0  0  0  0
    3.5119   -0.6233   -0.5134 H   0  0  0  0  0  0  0  0  0  0  0  0
   -5.4694   -0.4030   -1.9500 H   0  0  0  0  0  0  0  0  0  0  0  0
   -4.7508    1.1977   -2.1028 H   0  0  0  0  0  0  0  0  0  0  0  0
   -4.6052    2.6958    0.1023 H   0  0  0  0  0  0  0  0  0  0  0  0
   -5.2344    2.0064    1.5954 H   0  0  0  0  0  0  0  0  0  0  0  0
    4.5405    2.7788    1.7356 H   0  0  0  0  0  0  0  0  0  0  0  0
    3.8440    3.3693    0.2298 H   0  0  0  0  0  0  0  0  0  0  0  0
    4.2756    1.9263   -1.9752 H   0  0  0  0  0  0  0  0  0  0  0  0
    5.2323    0.4571   -1.8087 H   0  0  0  0  0  0  0  0  0  0  0  0
   -6.5268    1.2629   -0.4129 H   0  0  0  0  0  0  0  0  0  0  0  0
   -5.8105   -0.0907    0.4592 H   0  0  0  0  0  0  0  0  0  0  0  0
    5.9791    2.2599   -0.2436 H   0  0  0  0  0  0  0  0  0  0  0  0
    5.4651    0.8053    0.6081 H   0  0  0  0  0  0  0  0  0  0  0  0
    0.0106   -2.2369    1.8390 H   0  0  0  0  0  0  0  0  0  0  0  0
   -0.0110   -2.2220   -1.2420 H   0  0  0  0  0  0  0  0  0  0  0  0
   -0.7613   -3.4322   -0.2166 H   0  0  0  0  0  0  0  0  0  0  0  0
    1.5378   -4.0931    0.6957 H   0  0  0  0  0  0  0  0  0  0  0  0
    3.1667   -4.1308   -1.0757 H   0  0  0  0  0  0  0  0  0  0  0  0
    2.1274   -2.9803   -2.1016 H   0  0  0  0  0  0  0  0  0  0  0  0
  1 19  2  0  0  0  0
  2 20  2  0  0  0  0
  3 21  2  0  0  0  0
  4  6  1  0  0  0  0
  4 19  1  0  0  0  0
  4 20  1  0  0  0  0
  5  7  1  0  0  0  0
  5 19  1  0  0  0  0
  5 21  1  0  0  0  0
  6  8  1  0  0  0  0
  6  9  1  0  0  0  0
  6 25  1  0  0  0  0
  7 10  1  0  0  0  0
  7 11  1  0  0  0  0
  7 26  1  0  0  0  0
  8 12  1  0  0  0  0
  8 27  1  0  0  0  0
  8 28  1  0  0  0  0
  9 13  1  0  0  0  0
  9 29  1  0  0  0  0
  9 30  1  0  0  0  0
 10 14  1  0  0  0  0
 10 31  1  0  0  0  0
 10 32  1  0  0  0  0
 11 15  1  0  0  0  0
 11 33  1  0  0  0  0
 11 34  1  0  0  0  0
 12 16  1  0  0  0  0
 12 35  1  0  0  0  0
 12 36  1  0  0  0  0
 13 16  1  0  0  0  0
 13 37  1  0  0  0  0
 13 38  1  0  0  0  0
 14 17  1  0  0  0  0
 14 39  1  0  0  0  0
 14 40  1  0  0  0  0
 15 17  1  0  0  0  0
 15 41  1  0  0  0  0
 15 42  1  0  0  0  0
 16 43  1  0  0  0  0
 16 44  1  0  0  0  0
 17 45  1  0  0  0  0
 17 46  1  0  0  0  0
 18 20  1  0  0  0  0
 18 21  1  0  0  0  0
 18 22  1  0  0  0  0
 18 47  1  0  0  0  0
 22 23  1  0  0  0  0
 22 48  1  0  0  0  0
 22 49  1  0  0  0  0
 23 24  2  0  0  0  0
 23 50  1  0  0  0  0
 24 51  1  0  0  0  0
 24 52  1  0  0  0  0
M  END
> <PUBCHEM_COMPOUND_CID>
12936

> <PUBCHEM_CONFORMER_RMSD>
0.8

> <PUBCHEM_CONFORMER_DIVERSEORDER>
1
6
10
8
3
2
7
12
5
4
11
9

> <PUBCHEM_MMFF94_PARTIAL_CHARGES>
17
1 -0.57
18 0.12
19 0.69
2 -0.57
20 0.57
21 0.57
22 0.14
23 -0.29
24 -0.3
3 -0.57
4 -0.42
5 -0.42
50 0.15
51 0.15
52 0.15
6 0.3
7 0.3

> <PUBCHEM_EFFECTIVE_ROTOR_COUNT>
7

> <PUBCHEM_PHARMACOPHORE_FEATURES>
8
1 1 acceptor
1 18 anion
1 2 acceptor
1 24 hydrophobe
1 3 acceptor
6 4 5 18 19 20 21 rings
6 6 8 9 12 13 16 rings
6 7 10 11 14 15 17 rings

> <PUBCHEM_HEAVY_ATOM_COUNT>
24

> <PUBCHEM_ATOM_DEF_STEREO_COUNT>
0

> <PUBCHEM_ATOM_UDEF_STEREO_COUNT>
0

> <PUBCHEM_BOND_DEF_STEREO_COUNT>
0

> <PUBCHEM_BOND_UDEF_STEREO_COUNT>
0

> <PUBCHEM_ISOTOPIC_ATOM_COUNT>
0

> <PUBCHEM_COMPONENT_COUNT>
1

> <PUBCHEM_CACTVS_TAUTO_COUNT>
1

> <PUBCHEM_CONFORMER_ID>
0000328800000001

> <PUBCHEM_MMFF94_ENERGY>
43.5484

> <PUBCHEM_FEATURE_SELFOVERLAP>
40.594

> <PUBCHEM_SHAPE_FINGERPRINT>
12236239 1 18334017211925755557
12730499 353 18409438189977822195
12969540 114 18339936925835180101
13140716 1 18272654570884241947
13533116 47 18261957461798011341
13955234 65 18337105790799702051
15081414 286 18200587103191442333
1601671 61 17988925548208101012
167882 2 18409725205731701310
16945 1 17843123864130246323
17980427 23 17416967223052910356
1813 80 17831301966305432947
20554085 129 18114763559096008608
20600515 1 16975643403782470402
20645477 70 18270969063019853471
20739085 24 18058444468586835277
21033648 144 18200888304477566141
21033648 29 18189619332785755536
22182313 1 18200571658383459763
2255824 54 18192716867616104947
23419403 2 17551179277554632186
23558518 356 17550676513167865672
23559900 14 18341319021453832700
23566358 27 18189619508995289847
2748010 2 18201424883501036683
34934 24 17845945034894416312
350125 39 18057609961216094612
474 4 18411420592336952305
495365 180 18260838089808942272
5104073 3 18059011826089403905
5265222 85 17980459193880883308
633830 44 18186523189466857941
7364860 26 18264770033431428762

> <PUBCHEM_SHAPE_MULTIPOLES>
466.34
10.01
3.36
1.33
5.53
3.5
-0.06
-7.73
-1.81
-3.23
-0.11
0.03
0.06
0.34

> <PUBCHEM_SHAPE_SELFOVERLAP>
972.516

> <PUBCHEM_SHAPE_VOLUME>
258

> <PUBCHEM_COORDINATE_TYPE>
2
5
10

$$$$

