7044
  -OEChem-06261201412D

 28 29  0     0  0  0  0  0  0999 V2000
    3.7320   -0.5000    0.0000 C   0  0  0  0  0  0  0  0  0  0  0  0
    3.7320    0.5000    0.0000 C   0  0  0  0  0  0  0  0  0  0  0  0
    4.6260   -1.0347    0.0000 C   0  0  0  0  0  0  0  0  0  0  0  0
    2.8660   -1.0000    0.0000 C   0  0  0  0  0  0  0  0  0  0  0  0
    2.8660    1.0000    0.0000 C   0  0  0  0  0  0  0  0  0  0  0  0
    4.6260    1.0347    0.0000 C   0  0  0  0  0  0  0  0  0  0  0  0
    5.5321    0.5208    0.0000 C   0  0  0  0  0  0  0  0  0  0  0  0
    5.5321   -0.5208    0.0000 C   0  0  0  0  0  0  0  0  0  0  0  0
    2.0000   -0.5000    0.0000 C   0  0  0  0  0  0  0  0  0  0  0  0
    2.0000    0.5000    0.0000 C   0  0  0  0  0  0  0  0  0  0  0  0
    3.7273   -1.1200    0.0000 H   0  0  0  0  0  0  0  0  0  0  0  0
    3.7273    1.1200    0.0000 H   0  0  0  0  0  0  0  0  0  0  0  0
    5.0196    1.5137    0.0000 H   0  0  0  0  0  0  0  0  0  0  0  0
    4.2214    1.5044    0.0000 H   0  0  0  0  0  0  0  0  0  0  0  0
    3.2646    1.4750    0.0000 H   0  0  0  0  0  0  0  0  0  0  0  0
    2.4675    1.4750    0.0000 H   0  0  0  0  0  0  0  0  0  0  0  0
    2.4675   -1.4750    0.0000 H   0  0  0  0  0  0  0  0  0  0  0  0
    3.2646   -1.4750    0.0000 H   0  0  0  0  0  0  0  0  0  0  0  0
    4.2214   -1.5044    0.0000 H   0  0  0  0  0  0  0  0  0  0  0  0
    5.0196   -1.5137    0.0000 H   0  0  0  0  0  0  0  0  0  0  0  0
    6.1429    0.4147    0.0000 H   0  0  0  0  0  0  0  0  0  0  0  0
    5.7411    1.1045    0.0000 H   0  0  0  0  0  0  0  0  0  0  0  0
    5.7411   -1.1045    0.0000 H   0  0  0  0  0  0  0  0  0  0  0  0
    6.1429   -0.4147    0.0000 H   0  0  0  0  0  0  0  0  0  0  0  0
    1.3894   -0.3923    0.0000 H   0  0  0  0  0  0  0  0  0  0  0  0
    1.7880   -1.0826    0.0000 H   0  0  0  0  0  0  0  0  0  0  0  0
    1.7880    1.0826    0.0000 H   0  0  0  0  0  0  0  0  0  0  0  0
    1.3894    0.3923    0.0000 H   0  0  0  0  0  0  0  0  0  0  0  0
  1  2  1  0  0  0  0
  1  3  1  0  0  0  0
  1  4  1  0  0  0  0
  1 11  1  0  0  0  0
  2  5  1  0  0  0  0
  2  6  1  0  0  0  0
  2 12  1  0  0  0  0
  3  8  1  0  0  0  0
  3 19  1  0  0  0  0
  3 20  1  0  0  0  0
  4  9  1  0  0  0  0
  4 17  1  0  0  0  0
  4 18  1  0  0  0  0
  5 10  1  0  0  0  0
  5 15  1  0  0  0  0
  5 16  1  0  0  0  0
  6  7  1  0  0  0  0
  6 13  1  0  0  0  0
  6 14  1  0  0  0  0
  7  8  1  0  0  0  0
  7 21  1  0  0  0  0
  7 22  1  0  0  0  0
  8 23  1  0  0  0  0
  8 24  1  0  0  0  0
  9 10  1  0  0  0  0
  9 25  1  0  0  0  0
  9 26  1  0  0  0  0
 10 27  1  0  0  0  0
 10 28  1  0  0  0  0
M  END
> <PUBCHEM_COMPOUND_CID>
7044

> <PUBCHEM_COMPOUND_CANONICALIZED>
1

> <PUBCHEM_CACTVS_COMPLEXITY>
80.6

> <PUBCHEM_CACTVS_HBOND_ACCEPTOR>
0

> <PUBCHEM_CACTVS_HBOND_DONOR>
0

> <PUBCHEM_CACTVS_ROTATABLE_BOND>
0

> <PUBCHEM_CACTVS_SUBSKEYS>
AAADceBwAAAAAAAAAAAAAAAAAAAAAAAAAAAwYAAAAAAAAADAAAAAGAAAAAAADQCAAAAAAAAAAAAAAAAAAAAAAAAAAAAAAAAAAAAAAAIAAAAAAAAAAAAAAAEAgIAOgAAAAAAAAAAAAAAAACAAAAAAAAAAAA==

> <PUBCHEM_IUPAC_OPENEYE_NAME>
decalin

> <PUBCHEM_IUPAC_CAS_NAME>
1,2,3,4,4a,5,6,7,8,8a-decahydronaphthalene

> <PUBCHEM_IUPAC_NAME>
1,2,3,4,4a,5,6,7,8,8a-decahydronaphthalene

> <PUBCHEM_IUPAC_SYSTEMATIC_NAME>
1,2,3,4,4a,5,6,7,8,8a-decahydronaphthalene

> <PUBCHEM_IUPAC_TRADITIONAL_NAME>
decalin

> <PUBCHEM_IUPAC_INCHI>
InChI=1S/C10H18/c1-2-6-10-8-4-3-7-9(10)5-1/h9-10H,1-8H2

> <PUBCHEM_IUPAC_INCHIKEY>
NNBZCPXTIHJBJL-UHFFFAOYSA-N

> <PUBCHEM_XLOGP3_AA>
4.6

> <PUBCHEM_EXACT_MASS>
138.140851

> <PUBCHEM_MOLECULAR_FORMULA>
C10H18

> <PUBCHEM_MOLECULAR_WEIGHT>
138.24992

> <PUBCHEM_OPENEYE_CAN_SMILES>
C1CCC2CCCCC2C1

> <PUBCHEM_OPENEYE_ISO_SMILES>
C1CCC2CCCCC2C1

> <PUBCHEM_CACTVS_TPSA>
0

> <PUBCHEM_MONOISOTOPIC_WEIGHT>
138.140851

> <PUBCHEM_TOTAL_CHARGE>
0

> <PUBCHEM_HEAVY_ATOM_COUNT>
10

> <PUBCHEM_ATOM_DEF_STEREO_COUNT>
0

> <PUBCHEM_ATOM_UDEF_STEREO_COUNT>
0

> <PUBCHEM_BOND_DEF_STEREO_COUNT>
0

> <PUBCHEM_BOND_UDEF_STEREO_COUNT>
0

> <PUBCHEM_ISOTOPIC_ATOM_COUNT>
0

> <PUBCHEM_COMPONENT_COUNT>
1

> <PUBCHEM_CACTVS_TAUTO_COUNT>
1

> <PUBCHEM_COORDINATE_TYPE>
1
5
255

$$$$

