12030
  -OEChem-06261206253D

 20 20  0     0  0  0  0  0  0999 V2000
    2.3655   -1.9173   -0.0003 O   0  0  0  0  0  0  0  0  0  0  0  0
   -2.3565    2.2082   -0.0003 O   0  5  0  0  0  0  0  0  0  0  0  0
   -3.5017    0.3354   -0.0007 O   0  0  0  0  0  0  0  0  0  0  0  0
    2.4172    2.1606   -0.0001 O   0  5  0  0  0  0  0  0  0  0  0  0
    3.5218    0.2636   -0.0001 O   0  0  0  0  0  0  0  0  0  0  0  0
   -2.4124    0.9559    0.0000 N   0  3  0  0  0  0  0  0  0  0  0  0
    2.4459    0.9073   -0.0001 N   0  3  0  0  0  0  0  0  0  0  0  0
   -1.2117   -1.1810   -0.0001 C   0  0  0  0  0  0  0  0  0  0  0  0
   -1.1989    0.2139    0.0004 C   0  0  0  0  0  0  0  0  0  0  0  0
    1.2169    0.1917    0.0003 C   0  0  0  0  0  0  0  0  0  0  0  0
   -0.0100   -1.8894   -0.0003 C   0  0  0  0  0  0  0  0  0  0  0  0
    0.0153    0.9002    0.0007 C   0  0  0  0  0  0  0  0  0  0  0  0
    1.2042   -1.2030   -0.0002 C   0  0  0  0  0  0  0  0  0  0  0  0
   -2.4956   -1.9463    0.0006 C   0  0  0  0  0  0  0  0  0  0  0  0
   -0.0070   -2.9767   -0.0005 H   0  0  0  0  0  0  0  0  0  0  0  0
    0.0261    1.9877    0.0010 H   0  0  0  0  0  0  0  0  0  0  0  0
   -2.2938   -3.0256    0.0011 H   0  0  0  0  0  0  0  0  0  0  0  0
   -3.0782   -1.7705    0.9110 H   0  0  0  0  0  0  0  0  0  0  0  0
   -3.0784   -1.7714   -0.9098 H   0  0  0  0  0  0  0  0  0  0  0  0
    3.0920   -1.3885   -0.3633 H   0  0  0  0  0  0  0  0  0  0  0  0
  1 13  1  0  0  0  0
  1 20  1  0  0  0  0
  2  6  1  0  0  0  0
  3  6  2  0  0  0  0
  4  7  1  0  0  0  0
  5  7  2  0  0  0  0
  6  9  1  0  0  0  0
  7 10  1  0  0  0  0
  8  9  1  0  0  0  0
  8 11  2  0  0  0  0
  8 14  1  0  0  0  0
  9 12  2  0  0  0  0
 10 12  1  0  0  0  0
 10 13  2  0  0  0  0
 11 13  1  0  0  0  0
 11 15  1  0  0  0  0
 12 16  1  0  0  0  0
 14 17  1  0  0  0  0
 14 18  1  0  0  0  0
 14 19  1  0  0  0  0
M  CHG  4   2  -1   4  -1   6   1   7   1
M  END
> <PUBCHEM_COMPOUND_CID>
12030

> <PUBCHEM_CONFORMER_RMSD>
0.6

> <PUBCHEM_CONFORMER_DIVERSEORDER>
1

> <PUBCHEM_MMFF94_PARTIAL_CHARGES>
17
1 -0.53
10 0.13
11 -0.15
12 -0.15
13 0.08
14 0.14
15 0.15
16 0.15
2 -0.52
20 0.45
3 -0.52
4 -0.52
5 -0.52
6 0.91
7 0.91
8 -0.14
9 0.13

> <PUBCHEM_EFFECTIVE_ROTOR_COUNT>
2

> <PUBCHEM_PHARMACOPHORE_FEATURES>
8
1 1 donor
1 2 acceptor
1 2 anion
1 3 acceptor
1 4 acceptor
1 4 anion
1 5 acceptor
6 8 9 10 11 12 13 rings

> <PUBCHEM_HEAVY_ATOM_COUNT>
14

> <PUBCHEM_ATOM_DEF_STEREO_COUNT>
0

> <PUBCHEM_ATOM_UDEF_STEREO_COUNT>
0

> <PUBCHEM_BOND_DEF_STEREO_COUNT>
0

> <PUBCHEM_BOND_UDEF_STEREO_COUNT>
0

> <PUBCHEM_ISOTOPIC_ATOM_COUNT>
0

> <PUBCHEM_COMPONENT_COUNT>
1

> <PUBCHEM_CACTVS_TAUTO_COUNT>
15

> <PUBCHEM_CONFORMER_ID>
00002EFE00000001

> <PUBCHEM_MMFF94_ENERGY>
55.7163

> <PUBCHEM_FEATURE_SELFOVERLAP>
40.758

> <PUBCHEM_SHAPE_FINGERPRINT>
10608611 8 18410576179885261000
10967382 1 18338799017157299941
11206711 2 18265895765665573255
13380535 21 18410561894845088039
13380535 76 18410578387519641103
13897977 150 18410577275270525245
14325111 11 18338516331216239040
14648413 74 18338231673568801730
14897335 6 18410017641000246887
15279308 100 18266453394159744006
15442244 35 18266743665261430498
15775835 57 18410568491904175273
16945 1 18410575106185544071
18186145 218 18189893304396258797
193761 8 18410573993778698759
19973954 147 18410573989472954599
20510252 161 18118399553533042312
20511035 2 18115605849195512422
20871998 184 18189329066084576167
21501502 16 18410859858185579699
2334 1 18410855434379775331
23402539 116 18046637710837738783
23402655 69 18263094339609776973
23463225 33 18342462530156635858
23552423 10 18342458131804513870
23559900 14 18260821580783221332
2748010 2 18410570690948770351
528886 8 18410580582289867674
53812653 166 18261396619987912376
6333449 129 18337392647559890047
7364860 26 18334857268351920958

> <PUBCHEM_SHAPE_MULTIPOLES>
248.8
4.77
2.37
0.57
0.47
0.04
0
1.11
0
-0.29
0
-0.02
-0.04
0

> <PUBCHEM_SHAPE_SELFOVERLAP>
530.747

> <PUBCHEM_SHAPE_VOLUME>
139.6

> <PUBCHEM_COORDINATE_TYPE>
2
5
10

$$$$

