5597
  -OEChem-06261200453D

 43 44  0     1  0  0  0  0  0999 V2000
   -1.3214    1.6447    1.4062 O   0  0  0  0  0  0  0  0  0  0  0  0
    3.5832    2.1716    0.3430 O   0  0  0  0  0  0  0  0  0  0  0  0
    2.5381   -2.4536   -0.3271 O   0  0  0  0  0  0  0  0  0  0  0  0
    4.4052   -0.4115   -0.2252 O   0  0  0  0  0  0  0  0  0  0  0  0
   -5.3366    1.0676   -0.7643 N   0  0  0  0  0  0  0  0  0  0  0  0
   -1.9203   -0.1809    0.1075 N   0  0  0  0  0  0  0  0  0  0  0  0
   -3.3481   -0.0174    0.2345 C   0  0  2  0  0  0  0  0  0  0  0  0
   -4.0555   -1.3737    0.1985 C   0  0  0  0  0  0  0  0  0  0  0  0
   -5.5697   -1.1877    0.2191 C   0  0  0  0  0  0  0  0  0  0  0  0
   -3.8845    0.9101   -0.8598 C   0  0  0  0  0  0  0  0  0  0  0  0
   -6.0232   -0.2199   -0.8716 C   0  0  0  0  0  0  0  0  0  0  0  0
   -1.0150    0.6776    0.7137 C   0  0  0  0  0  0  0  0  0  0  0  0
    0.4209    0.3893    0.4644 C   0  0  0  0  0  0  0  0  0  0  0  0
    0.8013   -0.9067    0.1842 C   0  0  0  0  0  0  0  0  0  0  0  0
    1.3286    1.4267    0.5215 C   0  0  0  0  0  0  0  0  0  0  0  0
    2.6768    1.1560    0.2878 C   0  0  0  0  0  0  0  0  0  0  0  0
    2.1494   -1.1777   -0.0494 C   0  0  0  0  0  0  0  0  0  0  0  0
    3.0873   -0.1463    0.0023 C   0  0  0  0  0  0  0  0  0  0  0  0
    3.8451    2.8732   -0.8707 C   0  0  0  0  0  0  0  0  0  0  0  0
    2.8940   -3.2782    0.7808 C   0  0  0  0  0  0  0  0  0  0  0  0
    4.7444   -0.9630   -1.4954 C   0  0  0  0  0  0  0  0  0  0  0  0
   -3.5466    0.4475    1.2098 H   0  0  0  0  0  0  0  0  0  0  0  0
   -3.7418   -1.9900    1.0494 H   0  0  0  0  0  0  0  0  0  0  0  0
   -3.7696   -1.9236   -0.7078 H   0  0  0  0  0  0  0  0  0  0  0  0
   -6.0631   -2.1568    0.0840 H   0  0  0  0  0  0  0  0  0  0  0  0
   -5.8771   -0.8063    1.2011 H   0  0  0  0  0  0  0  0  0  0  0  0
   -3.4198    1.8987   -0.7658 H   0  0  0  0  0  0  0  0  0  0  0  0
   -3.6118    0.5335   -1.8544 H   0  0  0  0  0  0  0  0  0  0  0  0
   -5.8508   -0.6573   -1.8626 H   0  0  0  0  0  0  0  0  0  0  0  0
   -7.1021   -0.0544   -0.7781 H   0  0  0  0  0  0  0  0  0  0  0  0
   -5.6577    1.6829   -1.5113 H   0  0  0  0  0  0  0  0  0  0  0  0
   -1.5984   -0.8861   -0.5470 H   0  0  0  0  0  0  0  0  0  0  0  0
    0.1022   -1.7370    0.1687 H   0  0  0  0  0  0  0  0  0  0  0  0
    1.0176    2.4447    0.7391 H   0  0  0  0  0  0  0  0  0  0  0  0
    2.9340    3.3560   -1.2384 H   0  0  0  0  0  0  0  0  0  0  0  0
    4.2439    2.1949   -1.6315 H   0  0  0  0  0  0  0  0  0  0  0  0
    4.5915    3.6454   -0.6656 H   0  0  0  0  0  0  0  0  0  0  0  0
    2.0376   -3.4121    1.4492 H   0  0  0  0  0  0  0  0  0  0  0  0
    3.7356   -2.8446    1.3302 H   0  0  0  0  0  0  0  0  0  0  0  0
    3.1945   -4.2568    0.3965 H   0  0  0  0  0  0  0  0  0  0  0  0
    5.7232   -0.5679   -1.7830 H   0  0  0  0  0  0  0  0  0  0  0  0
    4.0239   -0.6871   -2.2734 H   0  0  0  0  0  0  0  0  0  0  0  0
    4.8278   -2.0508   -1.4219 H   0  0  0  0  0  0  0  0  0  0  0  0
  1 12  2  0  0  0  0
  2 16  1  0  0  0  0
  2 19  1  0  0  0  0
  3 17  1  0  0  0  0
  3 20  1  0  0  0  0
  4 18  1  0  0  0  0
  4 21  1  0  0  0  0
  5 10  1  0  0  0  0
  5 11  1  0  0  0  0
  5 31  1  0  0  0  0
  6  7  1  0  0  0  0
  6 12  1  0  0  0  0
  6 32  1  0  0  0  0
  7  8  1  0  0  0  0
  7 10  1  0  0  0  0
  7 22  1  0  0  0  0
  8  9  1  0  0  0  0
  8 23  1  0  0  0  0
  8 24  1  0  0  0  0
  9 11  1  0  0  0  0
  9 25  1  0  0  0  0
  9 26  1  0  0  0  0
 10 27  1  0  0  0  0
 10 28  1  0  0  0  0
 11 29  1  0  0  0  0
 11 30  1  0  0  0  0
 12 13  1  0  0  0  0
 13 14  2  0  0  0  0
 13 15  1  0  0  0  0
 14 17  1  0  0  0  0
 14 33  1  0  0  0  0
 15 16  2  0  0  0  0
 15 34  1  0  0  0  0
 16 18  1  0  0  0  0
 17 18  2  0  0  0  0
 19 35  1  0  0  0  0
 19 36  1  0  0  0  0
 19 37  1  0  0  0  0
 20 38  1  0  0  0  0
 20 39  1  0  0  0  0
 20 40  1  0  0  0  0
 21 41  1  0  0  0  0
 21 42  1  0  0  0  0
 21 43  1  0  0  0  0
M  END
> <PUBCHEM_COMPOUND_CID>
5597

> <PUBCHEM_CONFORMER_RMSD>
0.8

> <PUBCHEM_CONFORMER_DIVERSEORDER>
1
11
29
24
6
3
19
4
30
17
31
14
8
28
18
10
22
13
15
20
25
5
23
9
21
27
12
26
7
2
16

> <PUBCHEM_MMFF94_PARTIAL_CHARGES>
23
1 -0.57
10 0.27
11 0.27
12 0.54
13 0.09
14 -0.15
15 -0.15
16 0.08
17 0.08
18 0.08
19 0.28
2 -0.36
20 0.28
21 0.28
3 -0.36
31 0.36
32 0.37
33 0.15
34 0.15
4 -0.36
5 -0.9
6 -0.73
7 0.3

> <PUBCHEM_EFFECTIVE_ROTOR_COUNT>
7.2

> <PUBCHEM_PHARMACOPHORE_FEATURES>
9
1 1 acceptor
1 2 acceptor
1 3 acceptor
1 4 acceptor
1 5 cation
1 5 donor
1 6 donor
6 13 14 15 16 17 18 rings
6 5 7 8 9 10 11 rings

> <PUBCHEM_HEAVY_ATOM_COUNT>
21

> <PUBCHEM_ATOM_DEF_STEREO_COUNT>
0

> <PUBCHEM_ATOM_UDEF_STEREO_COUNT>
1

> <PUBCHEM_BOND_DEF_STEREO_COUNT>
0

> <PUBCHEM_BOND_UDEF_STEREO_COUNT>
0

> <PUBCHEM_ISOTOPIC_ATOM_COUNT>
0

> <PUBCHEM_COMPONENT_COUNT>
1

> <PUBCHEM_CACTVS_TAUTO_COUNT>
2

> <PUBCHEM_CONFORMER_ID>
000015DD00000001

> <PUBCHEM_MMFF94_ENERGY>
72.9997

> <PUBCHEM_FEATURE_SELFOVERLAP>
45.678

> <PUBCHEM_SHAPE_FINGERPRINT>
10693767 8 18187640371349992414
11089746 13 14045735994093286222
11287383 113 18202004283537618345
11719270 70 18410302389333050010
12107183 9 17831294274651379153
12236239 1 17313101960462184817
12293681 160 17897434000740692120
12553582 1 17676498271382689999
12730499 353 18271800198909877483
12788726 201 17604143826685513753
13167823 11 18260551117363912831
13668630 136 17458346334422237743
13836976 161 18333449833412464574
14528608 73 18341329998540837077
14573314 32 18272092708226945951
14576447 43 18335137630842301194
15183329 4 18187931742110232509
15188451 53 5039651683383322397
15475509 35 5328479063593328748
15537594 2 17823134536884504807
15961568 22 17346036654140869412
17844677 252 18411976971238259237
1813 80 15068618271283714857
18222031 100 16950293922575227507
18681886 176 17967536787663201330
200 152 18040155132346374105
20554085 129 17751368279575348864
20612939 158 18409724045763249812
20645477 70 18260263049163983934
21033650 10 16127529461409393845
21267235 1 18187635912403265807
21475661 188 14475248035652546118
221357 26 18409455804092403213
221490 88 18411976970705340539
22289505 5 18341900735206792468
23557571 272 17489874860154795253
23559900 14 18410018757602105867
23596394 208 18412546521996842519
239999 70 18261107470184426526
25147074 1 18041547156711168617
2871803 45 18408602573872412570
29717793 49 17749104508880070389
3004659 81 18335704970220527055
3060560 45 18411133645967246942
312423 11 17895743093041960073
33824 294 18410014321196404978
351380 3 17603588534579841495
4073 2 18200872877852143163
4214541 1 18410576215036238145
42630746 31 18333734585660127408
465052 167 17458341910331447167
5104073 3 18261394490121828211
5281201 14 18272372005418127133
5283173 99 18271250525275608149
6025842 7 18411421687263105294
6327066 14 17910109110857007844
77779 3 18412547617862310421
9709674 26 18343582915584349291
9999458 23 18341611491325119022

> <PUBCHEM_SHAPE_MULTIPOLES>
398.73
12.66
2.7
1.02
15.07
0.66
-0.12
0.83
-4.27
-3.92
0.17
-0.2
-0.12
0.18

> <PUBCHEM_SHAPE_SELFOVERLAP>
826.661

> <PUBCHEM_SHAPE_VOLUME>
228

> <PUBCHEM_COORDINATE_TYPE>
2
5
10

$$$$

