51090907
  -OEChem-06241223002D

 41 43  0     1  0  0  0  0  0999 V2000
    7.0468   -0.2500    0.0000 O   0  0  0  0  0  0  0  0  0  0  0  0
    8.0173    4.2445    0.0000 O   0  0  0  0  0  0  0  0  0  0  0  0
    6.1808    3.2500    0.0000 O   0  0  0  0  0  0  0  0  0  0  0  0
    5.3147   -0.2500    0.0000 N   0  0  0  0  0  0  0  0  0  0  0  0
    3.5827   -3.2500    0.0000 N   0  0  0  0  0  0  0  0  0  0  0  0
    7.0468    1.7500    0.0000 N   0  0  0  0  0  0  0  0  0  0  0  0
    6.1808    1.2500    0.0000 C   0  0  3  0  0  0  0  0  0  0  0  0
    5.3147   -1.2500    0.0000 C   0  0  0  0  0  0  0  0  0  0  0  0
    4.4487   -2.7500    0.0000 C   0  0  0  0  0  0  0  0  0  0  0  0
    6.1808    0.2500    0.0000 C   0  0  0  0  0  0  0  0  0  0  0  0
    4.4487   -1.7500    0.0000 C   0  0  0  0  0  0  0  0  0  0  0  0
    5.3147    1.7500    0.0000 C   0  0  0  0  0  0  0  0  0  0  0  0
    6.1808   -1.7500    0.0000 C   0  0  0  0  0  0  0  0  0  0  0  0
    5.3147   -3.2500    0.0000 C   0  0  0  0  0  0  0  0  0  0  0  0
    6.1808   -2.7500    0.0000 C   0  0  0  0  0  0  0  0  0  0  0  0
    2.6691   -2.8433    0.0000 C   0  0  0  0  0  0  0  0  0  0  0  0
    3.4782   -4.2445    0.0000 C   0  0  0  0  0  0  0  0  0  0  0  0
    7.0468    2.7500    0.0000 C   0  0  0  0  0  0  0  0  0  0  0  0
    2.5000   -4.4524    0.0000 C   0  0  0  0  0  0  0  0  0  0  0  0
    2.0000   -3.5864    0.0000 C   0  0  0  0  0  0  0  0  0  0  0  0
    7.9128    3.2500    0.0000 C   0  0  0  0  0  0  0  0  0  0  0  0
    8.8264    2.8433    0.0000 C   0  0  0  0  0  0  0  0  0  0  0  0
    9.4955    3.5864    0.0000 C   0  0  0  0  0  0  0  0  0  0  0  0
    8.9955    4.4524    0.0000 C   0  0  0  0  0  0  0  0  0  0  0  0
    6.1808    1.8700    0.0000 H   0  0  0  0  0  0  0  0  0  0  0  0
    4.7778    0.0600    0.0000 H   0  0  0  0  0  0  0  0  0  0  0  0
    3.9118   -1.4400    0.0000 H   0  0  0  0  0  0  0  0  0  0  0  0
    5.6247    2.2869    0.0000 H   0  0  0  0  0  0  0  0  0  0  0  0
    4.7778    2.0600    0.0000 H   0  0  0  0  0  0  0  0  0  0  0  0
    5.0047    1.2131    0.0000 H   0  0  0  0  0  0  0  0  0  0  0  0
    7.5837    1.4400    0.0000 H   0  0  0  0  0  0  0  0  0  0  0  0
    6.7177   -1.4400    0.0000 H   0  0  0  0  0  0  0  0  0  0  0  0
    5.3147   -3.8700    0.0000 H   0  0  0  0  0  0  0  0  0  0  0  0
    6.7177   -3.0600    0.0000 H   0  0  0  0  0  0  0  0  0  0  0  0
    2.5402   -2.2368    0.0000 H   0  0  0  0  0  0  0  0  0  0  0  0
    3.9389   -4.6594    0.0000 H   0  0  0  0  0  0  0  0  0  0  0  0
    1.3834   -3.5216    0.0000 H   0  0  0  0  0  0  0  0  0  0  0  0
    2.2478   -5.0188    0.0000 H   0  0  0  0  0  0  0  0  0  0  0  0
    8.9552    2.2368    0.0000 H   0  0  0  0  0  0  0  0  0  0  0  0
   10.1121    3.5216    0.0000 H   0  0  0  0  0  0  0  0  0  0  0  0
    9.2477    5.0188    0.0000 H   0  0  0  0  0  0  0  0  0  0  0  0
  1 10  2  0  0  0  0
  2 21  1  0  0  0  0
  2 24  1  0  0  0  0
  3 18  2  0  0  0  0
  4  8  1  0  0  0  0
  4 10  1  0  0  0  0
  4 26  1  0  0  0  0
  5  9  1  0  0  0  0
  5 16  1  0  0  0  0
  5 17  1  0  0  0  0
  6  7  1  0  0  0  0
  6 18  1  0  0  0  0
  6 31  1  0  0  0  0
  7 10  1  0  0  0  0
  7 12  1  0  0  0  0
  7 25  1  0  0  0  0
  8 11  2  0  0  0  0
  8 13  1  0  0  0  0
  9 11  1  0  0  0  0
  9 14  2  0  0  0  0
 11 27  1  0  0  0  0
 12 28  1  0  0  0  0
 12 29  1  0  0  0  0
 12 30  1  0  0  0  0
 13 15  2  0  0  0  0
 13 32  1  0  0  0  0
 14 15  1  0  0  0  0
 14 33  1  0  0  0  0
 15 34  1  0  0  0  0
 16 20  2  0  0  0  0
 16 35  1  0  0  0  0
 17 19  2  0  0  0  0
 17 36  1  0  0  0  0
 18 21  1  0  0  0  0
 19 20  1  0  0  0  0
 19 38  1  0  0  0  0
 20 37  1  0  0  0  0
 21 22  2  0  0  0  0
 22 23  1  0  0  0  0
 22 39  1  0  0  0  0
 23 24  2  0  0  0  0
 23 40  1  0  0  0  0
 24 41  1  0  0  0  0
M  END
> <PUBCHEM_COMPOUND_CID>
51090907

> <PUBCHEM_COMPOUND_CANONICALIZED>
1

> <PUBCHEM_CACTVS_COMPLEXITY>
451

> <PUBCHEM_CACTVS_HBOND_ACCEPTOR>
3

> <PUBCHEM_CACTVS_HBOND_DONOR>
2

> <PUBCHEM_CACTVS_ROTATABLE_BOND>
5

> <PUBCHEM_CACTVS_SUBSKEYS>
AAADceB7MAAAAAAAAAAAAAAAAAAAAWJAAAAwAAAAAAAAAAAB8AAAHgAQAAAACCzhkgY+xJPMFECoAL131AKCiCA1IiAI2KH+bNgOZvLE9f+XOSjk1hHY6YeYFwIAAAAAAAQAAAAAAAAACAAAAAAAAAAAAA==

> <PUBCHEM_IUPAC_OPENEYE_NAME>
N-[1-methyl-2-oxo-2-(3-pyrrol-1-ylanilino)ethyl]furan-2-carboxamide

> <PUBCHEM_IUPAC_CAS_NAME>
N-[1-oxo-1-[3-(1-pyrrolyl)anilino]propan-2-yl]-2-furancarboxamide

> <PUBCHEM_IUPAC_NAME>
N-[1-oxo-1-(3-pyrrol-1-ylanilino)propan-2-yl]furan-2-carboxamide

> <PUBCHEM_IUPAC_SYSTEMATIC_NAME>
N-[1-oxidanylidene-1-[(3-pyrrol-1-ylphenyl)amino]propan-2-yl]furan-2-carboxamide

> <PUBCHEM_IUPAC_TRADITIONAL_NAME>
N-[2-keto-1-methyl-2-(3-pyrrol-1-ylanilino)ethyl]-2-furamide

> <PUBCHEM_IUPAC_INCHI>
InChI=1S/C18H17N3O3/c1-13(19-18(23)16-8-5-11-24-16)17(22)20-14-6-4-7-15(12-14)21-9-2-3-10-21/h2-13H,1H3,(H,19,23)(H,20,22)

> <PUBCHEM_IUPAC_INCHIKEY>
BAMRSEASEZOOOJ-UHFFFAOYSA-N

> <PUBCHEM_XLOGP3_AA>
2.3

> <PUBCHEM_EXACT_MASS>
323.126991

> <PUBCHEM_MOLECULAR_FORMULA>
C18H17N3O3

> <PUBCHEM_MOLECULAR_WEIGHT>
323.34588

> <PUBCHEM_OPENEYE_CAN_SMILES>
CC(C(=O)NC1=CC=CC(=C1)N2C=CC=C2)NC(=O)C3=CC=CO3

> <PUBCHEM_OPENEYE_ISO_SMILES>
CC(C(=O)NC1=CC=CC(=C1)N2C=CC=C2)NC(=O)C3=CC=CO3

> <PUBCHEM_CACTVS_TPSA>
76.3

> <PUBCHEM_MONOISOTOPIC_WEIGHT>
323.126991

> <PUBCHEM_TOTAL_CHARGE>
0

> <PUBCHEM_HEAVY_ATOM_COUNT>
24

> <PUBCHEM_ATOM_DEF_STEREO_COUNT>
0

> <PUBCHEM_ATOM_UDEF_STEREO_COUNT>
1

> <PUBCHEM_BOND_DEF_STEREO_COUNT>
0

> <PUBCHEM_BOND_UDEF_STEREO_COUNT>
0

> <PUBCHEM_ISOTOPIC_ATOM_COUNT>
0

> <PUBCHEM_COMPONENT_COUNT>
1

> <PUBCHEM_CACTVS_TAUTO_COUNT>
6

> <PUBCHEM_COORDINATE_TYPE>
1
5
255

> <PUBCHEM_BONDANNOTATIONS>
13  15  8
14  15  8
16  20  8
17  19  8
19  20  8
2  21  8
2  24  8
21  22  8
22  23  8
23  24  8
5  16  8
5  17  8
7  12  3
8  11  8
8  13  8
9  11  8
9  14  8

$$$$

