13239
  -OEChem-06261207593D

 36 37  0     0  0  0  0  0  0999 V2000
    0.0354   -1.6733    0.2453 P   0  0  0  0  0  0  0  0  0  0  0  0
    1.4702   -0.5036    0.4509 C   0  0  0  0  0  0  0  0  0  0  0  0
   -1.2975   -0.4249   -0.1201 C   0  0  0  0  0  0  0  0  0  0  0  0
    2.8022   -1.2432    0.2721 C   0  0  0  0  0  0  0  0  0  0  0  0
    1.3557    0.6720   -0.5278 C   0  0  0  0  0  0  0  0  0  0  0  0
   -2.4751   -1.0867   -0.8471 C   0  0  0  0  0  0  0  0  0  0  0  0
   -1.7619    0.2654    1.1686 C   0  0  0  0  0  0  0  0  0  0  0  0
    3.9904   -0.2903    0.3938 C   0  0  0  0  0  0  0  0  0  0  0  0
    2.5477    1.6199   -0.4041 C   0  0  0  0  0  0  0  0  0  0  0  0
   -3.5982   -0.0863   -1.1163 C   0  0  0  0  0  0  0  0  0  0  0  0
   -2.8869    1.2621    0.8944 C   0  0  0  0  0  0  0  0  0  0  0  0
    3.8726    0.8831   -0.5740 C   0  0  0  0  0  0  0  0  0  0  0  0
   -4.0546    0.6059    0.1643 C   0  0  0  0  0  0  0  0  0  0  0  0
    1.4221   -0.1129    1.4753 H   0  0  0  0  0  0  0  0  0  0  0  0
   -0.9722    0.3198   -0.8446 H   0  0  0  0  0  0  0  0  0  0  0  0
    2.8394   -1.7335   -0.7101 H   0  0  0  0  0  0  0  0  0  0  0  0
    2.9028   -2.0378    1.0222 H   0  0  0  0  0  0  0  0  0  0  0  0
    0.5075    1.3190   -0.2933 H   0  0  0  0  0  0  0  0  0  0  0  0
    1.2672    0.3289   -1.5662 H   0  0  0  0  0  0  0  0  0  0  0  0
   -2.8751   -1.9172   -0.2498 H   0  0  0  0  0  0  0  0  0  0  0  0
   -2.1458   -1.5188   -1.8009 H   0  0  0  0  0  0  0  0  0  0  0  0
   -0.9327    0.7971    1.6503 H   0  0  0  0  0  0  0  0  0  0  0  0
   -2.1178   -0.4794    1.8934 H   0  0  0  0  0  0  0  0  0  0  0  0
    0.2968   -2.0478   -1.0943 H   0  0  0  0  0  0  0  0  0  0  0  0
    4.9209   -0.8356    0.2000 H   0  0  0  0  0  0  0  0  0  0  0  0
    4.0501    0.0884    1.4216 H   0  0  0  0  0  0  0  0  0  0  0  0
    2.5279    2.1079    0.5786 H   0  0  0  0  0  0  0  0  0  0  0  0
    2.4687    2.4138   -1.1557 H   0  0  0  0  0  0  0  0  0  0  0  0
   -4.4475   -0.6028   -1.5778 H   0  0  0  0  0  0  0  0  0  0  0  0
   -3.2537    0.6663   -1.8362 H   0  0  0  0  0  0  0  0  0  0  0  0
   -2.4991    2.0929    0.2920 H   0  0  0  0  0  0  0  0  0  0  0  0
   -3.2380    1.6903    1.8401 H   0  0  0  0  0  0  0  0  0  0  0  0
    4.7045    1.5782   -0.4141 H   0  0  0  0  0  0  0  0  0  0  0  0
    3.9560    0.5160   -1.6043 H   0  0  0  0  0  0  0  0  0  0  0  0
   -4.8117    1.3613   -0.0745 H   0  0  0  0  0  0  0  0  0  0  0  0
   -4.5322   -0.1279    0.8253 H   0  0  0  0  0  0  0  0  0  0  0  0
  1  2  1  0  0  0  0
  1  3  1  0  0  0  0
  1 24  1  0  0  0  0
  2  4  1  0  0  0  0
  2  5  1  0  0  0  0
  2 14  1  0  0  0  0
  3  6  1  0  0  0  0
  3  7  1  0  0  0  0
  3 15  1  0  0  0  0
  4  8  1  0  0  0  0
  4 16  1  0  0  0  0
  4 17  1  0  0  0  0
  5  9  1  0  0  0  0
  5 18  1  0  0  0  0
  5 19  1  0  0  0  0
  6 10  1  0  0  0  0
  6 20  1  0  0  0  0
  6 21  1  0  0  0  0
  7 11  1  0  0  0  0
  7 22  1  0  0  0  0
  7 23  1  0  0  0  0
  8 12  1  0  0  0  0
  8 25  1  0  0  0  0
  8 26  1  0  0  0  0
  9 12  1  0  0  0  0
  9 27  1  0  0  0  0
  9 28  1  0  0  0  0
 10 13  1  0  0  0  0
 10 29  1  0  0  0  0
 10 30  1  0  0  0  0
 11 13  1  0  0  0  0
 11 31  1  0  0  0  0
 11 32  1  0  0  0  0
 12 33  1  0  0  0  0
 12 34  1  0  0  0  0
 13 35  1  0  0  0  0
 13 36  1  0  0  0  0
M  END
> <PUBCHEM_COMPOUND_CID>
13239

> <PUBCHEM_CONFORMER_RMSD>
0.6

> <PUBCHEM_CONFORMER_DIVERSEORDER>
3
19
1
17
2
20
5
7
14
11
10
6
8
4
18
9
13
16
15
12

> <PUBCHEM_MMFF94_PARTIAL_CHARGES>
4
1 -0.43
2 0.17
24 0.1
3 0.17

> <PUBCHEM_EFFECTIVE_ROTOR_COUNT>
4.4

> <PUBCHEM_PHARMACOPHORE_FEATURES>
2
6 2 4 5 8 9 12 rings
6 3 6 7 10 11 13 rings

> <PUBCHEM_HEAVY_ATOM_COUNT>
13

> <PUBCHEM_ATOM_DEF_STEREO_COUNT>
0

> <PUBCHEM_ATOM_UDEF_STEREO_COUNT>
0

> <PUBCHEM_BOND_DEF_STEREO_COUNT>
0

> <PUBCHEM_BOND_UDEF_STEREO_COUNT>
0

> <PUBCHEM_ISOTOPIC_ATOM_COUNT>
0

> <PUBCHEM_COMPONENT_COUNT>
1

> <PUBCHEM_CACTVS_TAUTO_COUNT>
1

> <PUBCHEM_CONFORMER_ID>
000033B700000003

> <PUBCHEM_MMFF94_ENERGY>
14.692

> <PUBCHEM_FEATURE_SELFOVERLAP>
10.149

> <PUBCHEM_SHAPE_FINGERPRINT>
10980938 120 18273218607938784858
11471102 20 18273497879692094846
12162725 195 18334857216416297686
124424 183 17060344041177722954
12500047 106 15554451803337011939
12932764 1 17022904531864421299
13705890 14 14418130716986477330
14123260 362 18335972099737450229
14144814 61 18411417306512351960
14251717 144 18341618139412350814
14897335 6 18411419479824027362
14993402 34 18410292510623263422
15309172 13 18131069337631090659
15442244 35 18193556890183010002
15653759 3 15697997439899559285
15775835 57 18409726261802642853
17802600 8 18410863169605423400
18186145 218 18342737429359224230
19049666 15 16127268868447728683
19107657 47 17846502547065696080
200 152 18335990791878208247
20279233 1 16630808806984956714
20300324 65 17749112162537951037
20645464 45 16487254374561462787
20645476 183 18260271841384337599
20645477 70 17988650735031608498
20711983 171 18040713679631158892
21119208 17 18187085061319710039
21524375 3 18411136935168520355
22485316 2 8718828682425235179
231179 274 17703796920322762678
23402539 116 17603592936457011556
23402655 69 18409449197831276308
23557571 272 16081379522486486763
23559900 14 16805322219494835698
474 4 18342736316751503090
74978 22 18340484452814001638
77492 1 18333454265512732547
9971528 1 18408889572899830274

> <PUBCHEM_SHAPE_MULTIPOLES>
271.38
8.05
1.57
1.04
0.42
0.08
-0.01
-1.87
0.68
0.48
-0.01
-0.62
-0.07
-0.96

> <PUBCHEM_SHAPE_SELFOVERLAP>
518.88

> <PUBCHEM_SHAPE_VOLUME>
164.1

> <PUBCHEM_COORDINATE_TYPE>
2
5
10

$$$$

