11718
  -OEChem-06261206023D

  9  8  0     0  0  0  0  0  0999 V2000
   -1.0800    1.4584   -0.2906 Cl  0  0  0  0  0  0  0  0  0  0  0  0
   -1.0829   -1.4569   -0.2905 Cl  0  0  0  0  0  0  0  0  0  0  0  0
    1.6400   -0.0012   -0.6246 O   0  0  0  0  0  0  0  0  0  0  0  0
    1.0214   -0.0005    0.6559 C   0  0  0  0  0  0  0  0  0  0  0  0
   -0.4986    0.0002    0.5498 C   0  0  0  0  0  0  0  0  0  0  0  0
    1.3713    0.8857    1.1960 H   0  0  0  0  0  0  0  0  0  0  0  0
    1.3749   -0.8795    1.2060 H   0  0  0  0  0  0  0  0  0  0  0  0
   -0.9438    0.0008    1.5487 H   0  0  0  0  0  0  0  0  0  0  0  0
    1.3045   -0.7756   -1.1077 H   0  0  0  0  0  0  0  0  0  0  0  0
  1  5  1  0  0  0  0
  2  5  1  0  0  0  0
  3  4  1  0  0  0  0
  3  9  1  0  0  0  0
  4  5  1  0  0  0  0
  4  6  1  0  0  0  0
  4  7  1  0  0  0  0
  5  8  1  0  0  0  0
M  END
> <PUBCHEM_COMPOUND_CID>
11718

> <PUBCHEM_CONFORMER_RMSD>
0.4

> <PUBCHEM_CONFORMER_DIVERSEORDER>
1
2
3

> <PUBCHEM_MMFF94_PARTIAL_CHARGES>
6
1 -0.29
2 -0.29
3 -0.68
4 0.28
5 0.58
9 0.4

> <PUBCHEM_EFFECTIVE_ROTOR_COUNT>
1

> <PUBCHEM_PHARMACOPHORE_FEATURES>
2
1 3 acceptor
1 3 donor

> <PUBCHEM_HEAVY_ATOM_COUNT>
5

> <PUBCHEM_ATOM_DEF_STEREO_COUNT>
0

> <PUBCHEM_ATOM_UDEF_STEREO_COUNT>
0

> <PUBCHEM_BOND_DEF_STEREO_COUNT>
0

> <PUBCHEM_BOND_UDEF_STEREO_COUNT>
0

> <PUBCHEM_ISOTOPIC_ATOM_COUNT>
0

> <PUBCHEM_COMPONENT_COUNT>
1

> <PUBCHEM_CACTVS_TAUTO_COUNT>
1

> <PUBCHEM_CONFORMER_ID>
00002DC600000001

> <PUBCHEM_MMFF94_ENERGY>
2.1691

> <PUBCHEM_FEATURE_SELFOVERLAP>
10.148

> <PUBCHEM_SHAPE_FINGERPRINT>
139733 1 10374780068090913107
16714656 1 18410844465254522645
20096714 4 17701812409013974700
21015797 1 7853579044901911283
21040471 1 18194412314218470881
5943 1 9062612124046111819

> <PUBCHEM_SHAPE_MULTIPOLES>
100.77
1.78
1.56
0.85
0.54
0
0.02
0
-0.26
-0.96
-0.22
0.14
0
0

> <PUBCHEM_SHAPE_SELFOVERLAP>
157.575

> <PUBCHEM_SHAPE_VOLUME>
73

> <PUBCHEM_COORDINATE_TYPE>
2
5
10

$$$$

