7555
  -OEChem-06261202093D

 33 33  0     0  0  0  0  0  0999 V2000
   -2.8507    1.0716    0.0964 O   0  0  0  0  0  0  0  0  0  0  0  0
    0.3363   -2.2804    0.2000 O   0  0  0  0  0  0  0  0  0  0  0  0
    1.6413    2.1410   -0.1885 O   0  0  0  0  0  0  0  0  0  0  0  0
   -1.2933   -0.6387    0.1521 N   0  0  0  0  0  0  0  0  0  0  0  0
   -0.6164    1.6546   -0.0493 N   0  0  0  0  0  0  0  0  0  0  0  0
    1.0365   -0.0839    0.0042 N   0  0  0  0  0  0  0  0  0  0  0  0
   -1.5369    0.6810    0.0652 C   0  0  0  0  0  0  0  0  0  0  0  0
    0.0133   -0.9463    0.1153 C   0  0  0  0  0  0  0  0  0  0  0  0
    0.6463    1.1985   -0.0732 C   0  0  0  0  0  0  0  0  0  0  0  0
   -3.8228    0.0427    0.2174 C   0  0  0  0  0  0  0  0  0  0  0  0
    1.7191   -2.6028    0.1609 C   0  0  0  0  0  0  0  0  0  0  0  0
    2.9760    1.6557   -0.2134 C   0  0  0  0  0  0  0  0  0  0  0  0
   -5.1763    0.6679    0.2910 C   0  0  0  0  0  0  0  0  0  0  0  0
    1.8723   -4.0787    0.3218 C   0  0  0  0  0  0  0  0  0  0  0  0
    3.9031    2.8107   -0.3993 C   0  0  0  0  0  0  0  0  0  0  0  0
   -6.1571    0.4314   -0.5872 C   0  0  0  0  0  0  0  0  0  0  0  0
    2.4498   -4.8733   -0.5860 C   0  0  0  0  0  0  0  0  0  0  0  0
    4.8593    3.1491    0.4727 C   0  0  0  0  0  0  0  0  0  0  0  0
   -3.7558   -0.6389   -0.6399 H   0  0  0  0  0  0  0  0  0  0  0  0
   -3.6594   -0.5260    1.1414 H   0  0  0  0  0  0  0  0  0  0  0  0
    2.1556   -2.2685   -0.7889 H   0  0  0  0  0  0  0  0  0  0  0  0
    2.2462   -2.1135    0.9895 H   0  0  0  0  0  0  0  0  0  0  0  0
    3.1997    1.1248    0.7206 H   0  0  0  0  0  0  0  0  0  0  0  0
    3.1141    0.9690   -1.0580 H   0  0  0  0  0  0  0  0  0  0  0  0
   -5.3675    1.3514    1.1141 H   0  0  0  0  0  0  0  0  0  0  0  0
    1.4923   -4.5241    1.2376 H   0  0  0  0  0  0  0  0  0  0  0  0
    3.7888    3.4033   -1.3032 H   0  0  0  0  0  0  0  0  0  0  0  0
   -7.1210    0.9162   -0.4772 H   0  0  0  0  0  0  0  0  0  0  0  0
   -6.0194   -0.2432   -1.4249 H   0  0  0  0  0  0  0  0  0  0  0  0
    2.5326   -5.9400   -0.4084 H   0  0  0  0  0  0  0  0  0  0  0  0
    2.8471   -4.4797   -1.5150 H   0  0  0  0  0  0  0  0  0  0  0  0
    5.5034    3.9998    0.2783 H   0  0  0  0  0  0  0  0  0  0  0  0
    5.0169    2.5901    1.3884 H   0  0  0  0  0  0  0  0  0  0  0  0
  1  7  1  0  0  0  0
  1 10  1  0  0  0  0
  2  8  1  0  0  0  0
  2 11  1  0  0  0  0
  3  9  1  0  0  0  0
  3 12  1  0  0  0  0
  4  7  2  0  0  0  0
  4  8  1  0  0  0  0
  5  7  1  0  0  0  0
  5  9  2  0  0  0  0
  6  8  2  0  0  0  0
  6  9  1  0  0  0  0
 10 13  1  0  0  0  0
 10 19  1  0  0  0  0
 10 20  1  0  0  0  0
 11 14  1  0  0  0  0
 11 21  1  0  0  0  0
 11 22  1  0  0  0  0
 12 15  1  0  0  0  0
 12 23  1  0  0  0  0
 12 24  1  0  0  0  0
 13 16  2  0  0  0  0
 13 25  1  0  0  0  0
 14 17  2  0  0  0  0
 14 26  1  0  0  0  0
 15 18  2  0  0  0  0
 15 27  1  0  0  0  0
 16 28  1  0  0  0  0
 16 29  1  0  0  0  0
 17 30  1  0  0  0  0
 17 31  1  0  0  0  0
 18 32  1  0  0  0  0
 18 33  1  0  0  0  0
M  END
> <PUBCHEM_COMPOUND_CID>
7555

> <PUBCHEM_CONFORMER_RMSD>
0.8

> <PUBCHEM_CONFORMER_DIVERSEORDER>
1
2
14
16
7
8
17
15
11
10
19
18
13
9
5
3
12
4
6

> <PUBCHEM_MMFF94_PARTIAL_CHARGES>
27
1 -0.36
10 0.42
11 0.42
12 0.42
13 -0.29
14 -0.29
15 -0.29
16 -0.3
17 -0.3
18 -0.3
2 -0.36
25 0.15
26 0.15
27 0.15
28 0.15
29 0.15
3 -0.36
30 0.15
31 0.15
32 0.15
33 0.15
4 -0.62
5 -0.62
6 -0.62
7 0.7
8 0.7
9 0.7

> <PUBCHEM_EFFECTIVE_ROTOR_COUNT>
9

> <PUBCHEM_PHARMACOPHORE_FEATURES>
7
1 16 hydrophobe
1 17 hydrophobe
1 18 hydrophobe
3 4 5 7 cation
3 4 6 8 cation
3 5 6 9 cation
6 4 5 6 7 8 9 rings

> <PUBCHEM_HEAVY_ATOM_COUNT>
18

> <PUBCHEM_ATOM_DEF_STEREO_COUNT>
0

> <PUBCHEM_ATOM_UDEF_STEREO_COUNT>
0

> <PUBCHEM_BOND_DEF_STEREO_COUNT>
0

> <PUBCHEM_BOND_UDEF_STEREO_COUNT>
0

> <PUBCHEM_ISOTOPIC_ATOM_COUNT>
0

> <PUBCHEM_COMPONENT_COUNT>
1

> <PUBCHEM_CACTVS_TAUTO_COUNT>
1

> <PUBCHEM_CONFORMER_ID>
00001D8300000001

> <PUBCHEM_MMFF94_ENERGY>
39.9109

> <PUBCHEM_FEATURE_SELFOVERLAP>
38.286

> <PUBCHEM_SHAPE_FINGERPRINT>
10411042 1 17906733961523802138
13540713 5 18042118933724560545
138480 1 18194963182824540298
13955234 65 18411131480723513723
13968360 50 18340497672691690415
14178000 29 18048036560633449207
14508225 48 17762349410330991791
15042514 8 17475508379249606066
167882 2 18411981385926315883
17539 30 17398673402856769614
18915476 22 18270699643916148909
20554085 129 18042421157002476352
20600515 1 17333403553236779728
20645477 70 18343025532113940315
21054139 6 18118694223282081319
212916 134 18190193290903932128
23366157 5 18129654334853776288
23402539 116 18190464857143261717
23419403 2 17844545498093953414
23558518 356 17541110761499870860
23559900 14 18124321755573592363
23598288 3 17410482192230684308
3071541 37 18341889697298986637
3091708 16 9330894915644909738
42630746 31 18408887342904559333
5385378 56 18410285922133206977
6025842 7 18411141346585015807
7364860 26 18410854407892978755
77188 2 17978228593134428382
81539 233 18271806800438024597
9841814 1 17986957555643727219

> <PUBCHEM_SHAPE_MULTIPOLES>
337.88
9.87
5.54
0.68
14.02
8.14
-0.02
-8.11
-0.55
-11.24
-0.36
-0.02
0.05
0.28

> <PUBCHEM_SHAPE_SELFOVERLAP>
674.313

> <PUBCHEM_SHAPE_VOLUME>
195

> <PUBCHEM_COORDINATE_TYPE>
2
5
10

$$$$

