4351
  -OEChem-06261200043D

 33 32  0     0  0  0  0  0  0999 V2000
    1.6403   -0.2980    0.6817 O   0  0  0  0  0  0  0  0  0  0  0  0
    1.1159    1.2170   -0.9629 O   0  0  0  0  0  0  0  0  0  0  0  0
   -0.3022    0.8304    0.8334 N   0  0  0  0  0  0  0  0  0  0  0  0
   -4.8746   -1.8053    0.1408 N   0  0  0  0  0  0  0  0  0  0  0  0
    2.8681   -0.5959    0.0075 C   0  0  0  0  0  0  0  0  0  0  0  0
   -2.4220    1.1089   -0.3944 C   0  0  0  0  0  0  0  0  0  0  0  0
   -3.1211   -0.0636    0.3049 C   0  0  0  0  0  0  0  0  0  0  0  0
   -1.3482    1.7506    0.4797 C   0  0  0  0  0  0  0  0  0  0  0  0
    3.6935    0.6865   -0.0888 C   0  0  0  0  0  0  0  0  0  0  0  0
    3.6039   -1.6477    0.8348 C   0  0  0  0  0  0  0  0  0  0  0  0
    2.5404   -1.1385   -1.3829 C   0  0  0  0  0  0  0  0  0  0  0  0
   -4.2385   -0.6827   -0.5376 C   0  0  0  0  0  0  0  0  0  0  0  0
    0.8443    0.6383    0.0839 C   0  0  0  0  0  0  0  0  0  0  0  0
   -1.9743    0.7551   -1.3312 H   0  0  0  0  0  0  0  0  0  0  0  0
   -3.1651    1.8704   -0.6590 H   0  0  0  0  0  0  0  0  0  0  0  0
   -2.3842   -0.8408    0.5429 H   0  0  0  0  0  0  0  0  0  0  0  0
   -3.5373    0.2827    1.2596 H   0  0  0  0  0  0  0  0  0  0  0  0
   -0.9078    2.6031   -0.0489 H   0  0  0  0  0  0  0  0  0  0  0  0
   -1.7856    2.1226    1.4123 H   0  0  0  0  0  0  0  0  0  0  0  0
    3.6865    1.2304    0.8629 H   0  0  0  0  0  0  0  0  0  0  0  0
    4.7366    0.4518   -0.3329 H   0  0  0  0  0  0  0  0  0  0  0  0
    3.3623    1.3843   -0.8619 H   0  0  0  0  0  0  0  0  0  0  0  0
    4.5590   -1.9299    0.3801 H   0  0  0  0  0  0  0  0  0  0  0  0
    2.9929   -2.5509    0.9465 H   0  0  0  0  0  0  0  0  0  0  0  0
    3.7982   -1.2783    1.8482 H   0  0  0  0  0  0  0  0  0  0  0  0
    2.2318   -0.3800   -2.1066 H   0  0  0  0  0  0  0  0  0  0  0  0
    3.4206   -1.6242   -1.8210 H   0  0  0  0  0  0  0  0  0  0  0  0
    1.7366   -1.8823   -1.3334 H   0  0  0  0  0  0  0  0  0  0  0  0
   -4.9986    0.0749   -0.7566 H   0  0  0  0  0  0  0  0  0  0  0  0
   -3.8325   -1.0269   -1.4955 H   0  0  0  0  0  0  0  0  0  0  0  0
   -0.4100    0.2849    1.6832 H   0  0  0  0  0  0  0  0  0  0  0  0
   -4.1827   -2.5302    0.3267 H   0  0  0  0  0  0  0  0  0  0  0  0
   -5.5692   -2.2241   -0.4761 H   0  0  0  0  0  0  0  0  0  0  0  0
  1  5  1  0  0  0  0
  1 13  1  0  0  0  0
  2 13  2  0  0  0  0
  3  8  1  0  0  0  0
  3 13  1  0  0  0  0
  3 31  1  0  0  0  0
  4 12  1  0  0  0  0
  4 32  1  0  0  0  0
  4 33  1  0  0  0  0
  5  9  1  0  0  0  0
  5 10  1  0  0  0  0
  5 11  1  0  0  0  0
  6  7  1  0  0  0  0
  6  8  1  0  0  0  0
  6 14  1  0  0  0  0
  6 15  1  0  0  0  0
  7 12  1  0  0  0  0
  7 16  1  0  0  0  0
  7 17  1  0  0  0  0
  8 18  1  0  0  0  0
  8 19  1  0  0  0  0
  9 20  1  0  0  0  0
  9 21  1  0  0  0  0
  9 22  1  0  0  0  0
 10 23  1  0  0  0  0
 10 24  1  0  0  0  0
 10 25  1  0  0  0  0
 11 26  1  0  0  0  0
 11 27  1  0  0  0  0
 11 28  1  0  0  0  0
 12 29  1  0  0  0  0
 12 30  1  0  0  0  0
M  END
> <PUBCHEM_COMPOUND_CID>
4351

> <PUBCHEM_CONFORMER_RMSD>
0.8

> <PUBCHEM_CONFORMER_DIVERSEORDER>
1
60
19
55
18
43
11
9
59
14
58
49
63
10
24
47
54
42
31
34
26
38
57
22
25
46
29
36
62
6
61
4
7
13
56
32
23
33
53
28
27
17
8
5
41
52
48
30
50
15
16
45
20
35
3
39
44
51
2
12
40
37
21

> <PUBCHEM_MMFF94_PARTIAL_CHARGES>
11
1 -0.43
12 0.27
13 0.78
2 -0.57
3 -0.73
31 0.37
32 0.36
33 0.36
4 -0.99
5 0.28
8 0.3

> <PUBCHEM_EFFECTIVE_ROTOR_COUNT>
7

> <PUBCHEM_PHARMACOPHORE_FEATURES>
5
1 2 acceptor
1 3 donor
1 4 cation
1 4 donor
4 5 9 10 11 hydrophobe

> <PUBCHEM_HEAVY_ATOM_COUNT>
13

> <PUBCHEM_ATOM_DEF_STEREO_COUNT>
0

> <PUBCHEM_ATOM_UDEF_STEREO_COUNT>
0

> <PUBCHEM_BOND_DEF_STEREO_COUNT>
0

> <PUBCHEM_BOND_UDEF_STEREO_COUNT>
0

> <PUBCHEM_ISOTOPIC_ATOM_COUNT>
0

> <PUBCHEM_COMPONENT_COUNT>
1

> <PUBCHEM_CACTVS_TAUTO_COUNT>
2

> <PUBCHEM_CONFORMER_ID>
000010FF00000001

> <PUBCHEM_MMFF94_ENERGY>
15.0055

> <PUBCHEM_FEATURE_SELFOVERLAP>
25.371

> <PUBCHEM_SHAPE_FINGERPRINT>
10465860 228 7709460519905666900
10618630 7 18334574650902963855
11769659 78 18340490057445753089
11806522 49 18341613694042130144
12932764 1 18057309802968116120
13705890 14 18343867735934109012
14123255 352 8358265839161923147
14123255 52 9151176450292668605
14123260 362 10663819715324349087
14251710 61 18187919629347676015
14252887 29 16732978734589087902
14350558 41 18333726922884583445
14576447 43 18272087184514134550
15477762 27 18273214170847327484
177051 138 18334294287974636197
18186145 218 13829550090738485292
18915474 69 18343582919536197523
19107657 162 18113898311863595271
201361 129 7493285530025848852
20233049 118 11312062036548847118
20281407 28 17749108915469030121
20281475 54 18335980943391663033
20621476 91 17898036597020069482
20671657 53 18202565072953808341
20767249 442 10375871857652119703
20871999 31 18130795568500871061
21503847 285 6411296845005611474
22485316 2 18408887339100163417
23402539 116 18202007663318164636
23402655 69 17560522918698267093
3248919 1 17823703168842508944
4028521 119 12103847860807972879
76465 3 18059303187637308666

> <PUBCHEM_SHAPE_MULTIPOLES>
245.83
8.82
1.77
1
6.29
0.19
-0.16
5.06
-0.06
0.64
0.08
-0.54
0.15
-0.22

> <PUBCHEM_SHAPE_SELFOVERLAP>
460.048

> <PUBCHEM_SHAPE_VOLUME>
153.6

> <PUBCHEM_COORDINATE_TYPE>
2
5
10

$$$$

