9478
  -OEChem-06261203443D

 38 39  0     0  0  0  0  0  0999 V2000
   -5.6381    1.1407    0.2119 O   0  0  0  0  0  0  0  0  0  0  0  0
   -2.2821   -1.7364   -0.5278 O   0  0  0  0  0  0  0  0  0  0  0  0
    6.0158   -0.2455   -0.1227 N   0  0  0  0  0  0  0  0  0  0  0  0
   -0.3325    0.1867   -0.5562 N   0  0  0  0  0  0  0  0  0  0  0  0
   -1.6730    0.4847   -0.3751 N   0  0  0  0  0  0  0  0  0  0  0  0
   -4.2604    1.1204    0.0316 N   0  0  0  0  0  0  0  0  0  0  0  0
    1.9035    0.4297    0.4013 C   0  0  0  0  0  0  0  0  0  0  0  0
    4.6349   -0.0188    0.0534 C   0  0  0  0  0  0  0  0  0  0  0  0
    0.4436    0.6698    0.5882 C   0  0  0  0  0  0  0  0  0  0  0  0
    2.6959    1.3972   -0.2164 C   0  0  0  0  0  0  0  0  0  0  0  0
    2.4767   -0.7621    0.8450 C   0  0  0  0  0  0  0  0  0  0  0  0
    4.0616    1.1729   -0.3904 C   0  0  0  0  0  0  0  0  0  0  0  0
    3.8424   -0.9864    0.6711 C   0  0  0  0  0  0  0  0  0  0  0  0
    6.9465    0.8655   -0.1342 C   0  0  0  0  0  0  0  0  0  0  0  0
    6.5239   -1.5939   -0.2806 C   0  0  0  0  0  0  0  0  0  0  0  0
   -2.5923   -0.5552   -0.3749 C   0  0  0  0  0  0  0  0  0  0  0  0
   -3.9897   -0.1571   -0.1491 C   0  0  0  0  0  0  0  0  0  0  0  0
   -5.0884   -0.9970   -0.1031 C   0  0  0  0  0  0  0  0  0  0  0  0
   -6.1196   -0.1260    0.1297 C   0  0  0  0  0  0  0  0  0  0  0  0
   -7.5689   -0.2891    0.2984 C   0  0  0  0  0  0  0  0  0  0  0  0
    0.1063    0.1709    1.5066 H   0  0  0  0  0  0  0  0  0  0  0  0
    0.2693    1.7431    0.7456 H   0  0  0  0  0  0  0  0  0  0  0  0
    2.2605    2.3281   -0.5702 H   0  0  0  0  0  0  0  0  0  0  0  0
    1.8703   -1.5233    1.3290 H   0  0  0  0  0  0  0  0  0  0  0  0
    4.6478    1.9413   -0.8863 H   0  0  0  0  0  0  0  0  0  0  0  0
    4.2588   -1.9200    1.0388 H   0  0  0  0  0  0  0  0  0  0  0  0
   -0.0384    0.6805   -1.3988 H   0  0  0  0  0  0  0  0  0  0  0  0
    6.9403    1.3669   -1.1077 H   0  0  0  0  0  0  0  0  0  0  0  0
    7.9710    0.5252    0.0539 H   0  0  0  0  0  0  0  0  0  0  0  0
    6.7091    1.5958    0.6477 H   0  0  0  0  0  0  0  0  0  0  0  0
    7.5229   -1.5891   -0.7311 H   0  0  0  0  0  0  0  0  0  0  0  0
    5.8842   -2.1892   -0.9418 H   0  0  0  0  0  0  0  0  0  0  0  0
    6.6029   -2.0951    0.6898 H   0  0  0  0  0  0  0  0  0  0  0  0
   -1.9443    1.4561   -0.2560 H   0  0  0  0  0  0  0  0  0  0  0  0
   -5.1488   -2.0691   -0.2176 H   0  0  0  0  0  0  0  0  0  0  0  0
   -7.8852    0.0742    1.2810 H   0  0  0  0  0  0  0  0  0  0  0  0
   -8.1113    0.2737   -0.4676 H   0  0  0  0  0  0  0  0  0  0  0  0
   -7.8603   -1.3408    0.2162 H   0  0  0  0  0  0  0  0  0  0  0  0
  1  6  1  0  0  0  0
  1 19  1  0  0  0  0
  2 16  2  0  0  0  0
  3  8  1  0  0  0  0
  3 14  1  0  0  0  0
  3 15  1  0  0  0  0
  4  5  1  0  0  0  0
  4  9  1  0  0  0  0
  4 27  1  0  0  0  0
  5 16  1  0  0  0  0
  5 34  1  0  0  0  0
  6 17  2  0  0  0  0
  7  9  1  0  0  0  0
  7 10  2  0  0  0  0
  7 11  1  0  0  0  0
  8 12  2  0  0  0  0
  8 13  1  0  0  0  0
  9 21  1  0  0  0  0
  9 22  1  0  0  0  0
 10 12  1  0  0  0  0
 10 23  1  0  0  0  0
 11 13  2  0  0  0  0
 11 24  1  0  0  0  0
 12 25  1  0  0  0  0
 13 26  1  0  0  0  0
 14 28  1  0  0  0  0
 14 29  1  0  0  0  0
 14 30  1  0  0  0  0
 15 31  1  0  0  0  0
 15 32  1  0  0  0  0
 15 33  1  0  0  0  0
 16 17  1  0  0  0  0
 17 18  1  0  0  0  0
 18 19  2  0  0  0  0
 18 35  1  0  0  0  0
 19 20  1  0  0  0  0
 20 36  1  0  0  0  0
 20 37  1  0  0  0  0
 20 38  1  0  0  0  0
M  END
> <PUBCHEM_COMPOUND_CID>
9478

> <PUBCHEM_CONFORMER_RMSD>
0.8

> <PUBCHEM_CONFORMER_DIVERSEORDER>
1
19
24
5
17
15
10
22
3
13
25
2
14
16
7
8
12
4
11
23
6
21
20
9
18

> <PUBCHEM_MMFF94_PARTIAL_CHARGES>
27
1 -0.02
10 -0.15
11 -0.15
12 -0.15
13 -0.15
14 0.37
15 0.37
16 0.72
17 0.2
18 -0.15
19 -0.04
2 -0.57
20 0.18
23 0.15
24 0.15
25 0.15
26 0.15
27 0.36
3 -0.84
34 0.37
35 0.15
4 -0.64
5 -0.42
6 -0.41
7 -0.14
8 0.1
9 0.41

> <PUBCHEM_EFFECTIVE_ROTOR_COUNT>
6

> <PUBCHEM_PHARMACOPHORE_FEATURES>
7
1 2 acceptor
1 3 cation
1 4 donor
1 5 donor
1 6 acceptor
5 1 6 17 18 19 rings
6 7 8 10 11 12 13 rings

> <PUBCHEM_HEAVY_ATOM_COUNT>
20

> <PUBCHEM_ATOM_DEF_STEREO_COUNT>
0

> <PUBCHEM_ATOM_UDEF_STEREO_COUNT>
0

> <PUBCHEM_BOND_DEF_STEREO_COUNT>
0

> <PUBCHEM_BOND_UDEF_STEREO_COUNT>
0

> <PUBCHEM_ISOTOPIC_ATOM_COUNT>
0

> <PUBCHEM_COMPONENT_COUNT>
1

> <PUBCHEM_CACTVS_TAUTO_COUNT>
2

> <PUBCHEM_CONFORMER_ID>
0000250600000001

> <PUBCHEM_MMFF94_ENERGY>
49.9356

> <PUBCHEM_FEATURE_SELFOVERLAP>
37.011

> <PUBCHEM_SHAPE_FINGERPRINT>
10299344 5 18411980264818545322
10354089 29 18272653441655527888
10968037 39 18202565068674327215
11089746 13 14201121210323181074
11315181 36 18411979149108275889
11524674 6 16877944919470461607
11796584 16 17530963549835148430
12107183 9 17692538127629278945
12236239 1 18408322194360444640
12516196 113 17822013099163989032
12730499 353 17060337431613438426
13533116 47 13840534207536260396
13685833 64 18411980264860671946
13914758 101 13912593992218784483
14123256 10 11672064142758561487
14170010 4 18131069308399964444
1420 363 16702020880971070088
14251752 14 18259985997929605218
14251764 18 18260267438947465055
14251764 46 18411419509603773387
14617045 38 18131350821250750010
14933364 13 18342457041098975093
15183329 4 18410576205760456131
17844677 252 18272083903270364629
19489759 90 15791728607798400627
20157964 124 8646773300448464992
20281389 69 18408324380398922361
21267235 1 18413103974318388788
22224240 67 15626224593571786504
23035841 295 18412546526634922106
23402539 116 17676493830961330509
23536379 177 18409448089698026400
23559900 14 18188217493898515385
28498 318 18335984246284615823
29717793 49 18260261954559188244
3004659 81 18412546518102737008
351380 180 7997970184690039790
3545911 37 18411139129838441961
4073 2 17917143888665257658
4214541 1 18410576180375793477
4325135 7 10375872974375219787
4463277 17 18409731759703757512
5385378 56 16951110881501186727
54446538 1 18413388735314677325
8209 1 18412826880213562333

> <PUBCHEM_SHAPE_MULTIPOLES>
379.93
20.83
1.38
0.74
9.24
0.15
0.05
1.83
-0.15
-0.93
-0.08
-0.18
0.06
-0.35

> <PUBCHEM_SHAPE_SELFOVERLAP>
794.975

> <PUBCHEM_SHAPE_VOLUME>
216.4

> <PUBCHEM_COORDINATE_TYPE>
2
5
10

$$$$

