5647
  -OEChem-06261200473D

 43 44  0     1  0  0  0  0  0999 V2000
    2.9605    1.1415   -0.8877 O   0  0  0  0  0  0  0  0  0  0  0  0
    0.4996    2.1021    0.0503 O   0  0  0  0  0  0  0  0  0  0  0  0
    4.5840    0.9071    0.7310 O   0  0  0  0  0  0  0  0  0  0  0  0
   -5.1669   -0.8327   -1.1520 O   0  0  0  0  0  0  0  0  0  0  0  0
   -1.7504    1.6618    0.4012 N   0  0  0  0  0  0  0  0  0  0  0  0
    5.0487   -1.6737    0.0127 N   0  0  0  0  0  0  0  0  0  0  0  0
   -1.6571   -0.7166    0.8853 N   0  0  0  0  0  0  0  0  0  0  0  0
   -3.6736    1.6743   -0.7294 N   0  0  0  0  0  0  0  0  0  0  0  0
   -3.5175   -1.9639    0.0192 N   0  0  0  0  0  0  0  0  0  0  0  0
   -1.7777   -2.9996    1.2258 N   0  0  0  0  0  0  0  0  0  0  0  0
    2.5998   -1.7041   -0.5363 C   0  0  0  0  0  0  0  0  0  0  0  0
    3.9606   -0.9840   -0.6822 C   0  0  1  0  0  0  0  0  0  0  0  0
    2.1210   -1.6960    0.9195 C   0  0  0  0  0  0  0  0  0  0  0  0
    2.6043   -3.1413   -1.0707 C   0  0  0  0  0  0  0  0  0  0  0  0
    3.9001    0.4493   -0.1755 C   0  0  0  0  0  0  0  0  0  0  0  0
   -2.1930    0.3929    0.3702 C   0  0  0  0  0  0  0  0  0  0  0  0
   -0.5333    2.1639    1.0234 C   0  0  0  0  0  0  0  0  0  0  0  0
    2.7894    2.5125   -0.5147 C   0  0  0  0  0  0  0  0  0  0  0  0
   -3.3687    0.4061   -0.3219 C   0  0  0  0  0  0  0  0  0  0  0  0
    1.7277    2.6031    0.5644 C   0  0  0  0  0  0  0  0  0  0  0  0
   -2.6740    2.4115   -0.2753 C   0  0  0  0  0  0  0  0  0  0  0  0
   -4.1090   -0.8215   -0.5344 C   0  0  0  0  0  0  0  0  0  0  0  0
   -2.3746   -1.8928    0.6770 C   0  0  0  0  0  0  0  0  0  0  0  0
    1.8543   -1.1507   -1.1231 H   0  0  0  0  0  0  0  0  0  0  0  0
    4.2321   -0.9402   -1.7442 H   0  0  0  0  0  0  0  0  0  0  0  0
    1.1428   -2.1804    0.9959 H   0  0  0  0  0  0  0  0  0  0  0  0
    2.0058   -0.6790    1.3064 H   0  0  0  0  0  0  0  0  0  0  0  0
    2.8025   -2.2412    1.5801 H   0  0  0  0  0  0  0  0  0  0  0  0
    2.9375   -3.1627   -2.1135 H   0  0  0  0  0  0  0  0  0  0  0  0
    3.2670   -3.7883   -0.4867 H   0  0  0  0  0  0  0  0  0  0  0  0
    1.5975   -3.5710   -1.0322 H   0  0  0  0  0  0  0  0  0  0  0  0
   -0.7172    3.1966    1.3393 H   0  0  0  0  0  0  0  0  0  0  0  0
   -0.3016    1.5384    1.8917 H   0  0  0  0  0  0  0  0  0  0  0  0
    5.9258   -1.1785   -0.1442 H   0  0  0  0  0  0  0  0  0  0  0  0
    4.8892   -1.6615    1.0187 H   0  0  0  0  0  0  0  0  0  0  0  0
    3.7329    2.9687   -0.1953 H   0  0  0  0  0  0  0  0  0  0  0  0
    2.4557    3.0390   -1.4152 H   0  0  0  0  0  0  0  0  0  0  0  0
    2.0179    2.0075    1.4372 H   0  0  0  0  0  0  0  0  0  0  0  0
    1.5994    3.6478    0.8685 H   0  0  0  0  0  0  0  0  0  0  0  0
   -2.5719    3.4800   -0.4092 H   0  0  0  0  0  0  0  0  0  0  0  0
   -0.7840   -0.7299    1.4018 H   0  0  0  0  0  0  0  0  0  0  0  0
   -0.9149   -2.9299    1.7535 H   0  0  0  0  0  0  0  0  0  0  0  0
   -2.1992   -3.9182    1.1419 H   0  0  0  0  0  0  0  0  0  0  0  0
  1 15  1  0  0  0  0
  1 18  1  0  0  0  0
  2 17  1  0  0  0  0
  2 20  1  0  0  0  0
  3 15  2  0  0  0  0
  4 22  2  0  0  0  0
  5 16  1  0  0  0  0
  5 17  1  0  0  0  0
  5 21  1  0  0  0  0
  6 12  1  0  0  0  0
  6 34  1  0  0  0  0
  6 35  1  0  0  0  0
  7 16  1  0  0  0  0
  7 23  1  0  0  0  0
  7 41  1  0  0  0  0
  8 19  1  0  0  0  0
  8 21  2  0  0  0  0
  9 22  1  0  0  0  0
  9 23  2  0  0  0  0
 10 23  1  0  0  0  0
 10 42  1  0  0  0  0
 10 43  1  0  0  0  0
 11 12  1  0  0  0  0
 11 13  1  0  0  0  0
 11 14  1  0  0  0  0
 11 24  1  0  0  0  0
 12 15  1  0  0  0  0
 12 25  1  0  0  0  0
 13 26  1  0  0  0  0
 13 27  1  0  0  0  0
 13 28  1  0  0  0  0
 14 29  1  0  0  0  0
 14 30  1  0  0  0  0
 14 31  1  0  0  0  0
 16 19  2  0  0  0  0
 17 32  1  0  0  0  0
 17 33  1  0  0  0  0
 18 20  1  0  0  0  0
 18 36  1  0  0  0  0
 18 37  1  0  0  0  0
 19 22  1  0  0  0  0
 20 38  1  0  0  0  0
 20 39  1  0  0  0  0
 21 40  1  0  0  0  0
M  END
> <PUBCHEM_COMPOUND_CID>
5647

> <PUBCHEM_CONFORMER_RMSD>
1

> <PUBCHEM_CONFORMER_DIVERSEORDER>
1
19
115
250
315
91
272
78
83
177
73
49
77
24
198
174
186
84
223
133
50
105
262
96
86
70
108
205
296
33
207
292
258
4
313
60
165
269
122
67
3
257
82
190
328
101
204
189
32
87
161
222
178
326
120
15
11
244
64
294
53
69
183
129
299
71
254
75
239
5
88
65
159
142
264
48
14
121
184
16
36
27
323
270
164
139
99
288
66
219
312
209
309
43
171
143
153
68
260
135
40
156
180
157
311
131
196
9
106
147
17
278
154
300
46
297
21
55
118
214
211
22
10
104
231
13
94
158
152
208
125
237
162
23
127
224
12
38
136
140
302
284
187
119
263
63
232
138
117
216
42
195
110
166
52
307
218
221
93
150
124
111
265
274
59
30
74
188
172
238
8
90
47
181
25
199
141
76
149
31
185
54
95
145
62
201
80
20
72
102
107
217
275
277
251
267
303
41
314
18
310
228
113
212
192
235
114
246
85
289
234
132
176
226
116
44
6
137
213
51
215
173
271
103
28
92
285
197
191
79
256
291
58
320
242
29
255
202
35
34
287
7
194
230
182
236
61
295
39
247
253
319
109
282
168
229
327
248
112
148
252
249
325
279
233
2
130
240
210
273
56
203
123
220
175
37
89
155
146
243
134
317
227
81
280
170
179
163
324
57
126
26
304
200
266
151
128
100
45
144
286
98
321
298
97
305
167
290
261
169
241
206
316
276
318
225
245
283
193
322
268
281
160
306
308
293
259
301

> <PUBCHEM_MMFF94_PARTIAL_CHARGES>
26
1 -0.43
10 -0.85
12 0.33
15 0.66
16 -0.07
17 0.54
18 0.28
19 0.14
2 -0.56
20 0.28
21 0.04
22 0.87
23 0.55
3 -0.57
34 0.36
35 0.36
4 -0.57
40 0.15
41 0.4
42 0.4
43 0.4
5 0.05
6 -0.99
7 -0.53
8 -0.57
9 -0.66

> <PUBCHEM_EFFECTIVE_ROTOR_COUNT>
8

> <PUBCHEM_PHARMACOPHORE_FEATURES>
12
1 10 donor
1 2 acceptor
1 3 acceptor
1 4 acceptor
1 6 cation
1 6 donor
1 7 donor
1 9 donor
3 11 13 14 hydrophobe
3 5 8 21 cation
5 5 8 16 19 21 rings
6 7 9 16 19 22 23 rings

> <PUBCHEM_HEAVY_ATOM_COUNT>
23

> <PUBCHEM_ATOM_DEF_STEREO_COUNT>
0

> <PUBCHEM_ATOM_UDEF_STEREO_COUNT>
1

> <PUBCHEM_BOND_DEF_STEREO_COUNT>
0

> <PUBCHEM_BOND_UDEF_STEREO_COUNT>
0

> <PUBCHEM_ISOTOPIC_ATOM_COUNT>
0

> <PUBCHEM_COMPONENT_COUNT>
1

> <PUBCHEM_CACTVS_TAUTO_COUNT>
6

> <PUBCHEM_CONFORMER_ID>
0000160F00000001

> <PUBCHEM_MMFF94_ENERGY>
45.8041

> <PUBCHEM_FEATURE_SELFOVERLAP>
61.134

> <PUBCHEM_SHAPE_FINGERPRINT>
10616163 171 18339918195635639596
10693767 8 17972340438391761311
10764073 3 17480253124363869497
108634 29 18412818093212089362
11370993 70 18342742883904211246
12553582 1 18265876030312200352
12596599 1 18043516412485888074
12596602 18 15719675333864485072
12838863 1 18338538390364210274
13122387 1 17977943806553238158
13402501 40 18410856529707153666
14251757 17 18341054098479045297
14790565 3 17759238888327751249
14931854 50 18342174496548833838
15163728 17 15768116673133223589
15196674 1 18409730685961907516
15352361 1 18408603690764454020
15635459 17 18407755928486477426
19930381 70 18336546135292028847
20645477 70 18340489963136171348
23559900 14 18408891736962454544
312425 83 17561082488438853364
4280585 95 18050845817612112030
445580 102 18265884770528657330
463206 1 18116720608067952879
5309563 4 17763451829931754003
6433294 58 18337106757267141414
9709674 26 18411979139616235088

> <PUBCHEM_SHAPE_MULTIPOLES>
419.97
9.99
3.84
1.05
1.24
0.25
-0.05
2.77
2.34
0.94
-0.19
-0.12
0.28
0.68

> <PUBCHEM_SHAPE_SELFOVERLAP>
874.354

> <PUBCHEM_SHAPE_VOLUME>
238.1

> <PUBCHEM_COORDINATE_TYPE>
2
5
10

$$$$

