17395449
  -OEChem-06241222502D

 40 42  0     0  0  0  0  0  0999 V2000
    3.7320    0.5000    0.0000 O   0  0  0  0  0  0  0  0  0  0  0  0
    5.4641    4.5000    0.0000 O   0  0  0  0  0  0  0  0  0  0  0  0
    4.5981   -1.0000    0.0000 N   0  0  0  0  0  0  0  0  0  0  0  0
    4.5981    2.0000    0.0000 N   0  0  0  0  0  0  0  0  0  0  0  0
    4.5981    3.0000    0.0000 N   0  0  0  0  0  0  0  0  0  0  0  0
    6.3301    2.0000    0.0000 C   0  0  0  0  0  0  0  0  0  0  0  0
    5.4641    1.5000    0.0000 C   0  0  0  0  0  0  0  0  0  0  0  0
    5.4641    0.5000    0.0000 C   0  0  0  0  0  0  0  0  0  0  0  0
    3.7320   -1.5000    0.0000 C   0  0  0  0  0  0  0  0  0  0  0  0
    3.7320   -2.5000    0.0000 C   0  0  0  0  0  0  0  0  0  0  0  0
    6.3301    3.0000    0.0000 C   0  0  0  0  0  0  0  0  0  0  0  0
    4.5981    0.0000    0.0000 C   0  0  0  0  0  0  0  0  0  0  0  0
    2.8660   -3.0000    0.0000 C   0  0  0  0  0  0  0  0  0  0  0  0
    7.2241    1.4653    0.0000 C   0  0  0  0  0  0  0  0  0  0  0  0
    5.4641    3.5000    0.0000 C   0  0  0  0  0  0  0  0  0  0  0  0
    4.5981   -3.0000    0.0000 C   0  0  0  0  0  0  0  0  0  0  0  0
    7.2241    3.5347    0.0000 C   0  0  0  0  0  0  0  0  0  0  0  0
    2.8660   -4.0000    0.0000 C   0  0  0  0  0  0  0  0  0  0  0  0
    8.1301    1.9792    0.0000 C   0  0  0  0  0  0  0  0  0  0  0  0
    2.0000   -2.5000    0.0000 C   0  0  0  0  0  0  0  0  0  0  0  0
    8.1301    3.0208    0.0000 C   0  0  0  0  0  0  0  0  0  0  0  0
    4.5981   -4.0000    0.0000 C   0  0  0  0  0  0  0  0  0  0  0  0
    3.7320   -4.5000    0.0000 C   0  0  0  0  0  0  0  0  0  0  0  0
    5.6762   -0.0826    0.0000 H   0  0  0  0  0  0  0  0  0  0  0  0
    6.0747    0.6077    0.0000 H   0  0  0  0  0  0  0  0  0  0  0  0
    3.5200   -0.9174    0.0000 H   0  0  0  0  0  0  0  0  0  0  0  0
    3.1215   -1.6077    0.0000 H   0  0  0  0  0  0  0  0  0  0  0  0
    5.1350   -1.3100    0.0000 H   0  0  0  0  0  0  0  0  0  0  0  0
    7.2169    0.8454    0.0000 H   0  0  0  0  0  0  0  0  0  0  0  0
    5.1350   -2.6900    0.0000 H   0  0  0  0  0  0  0  0  0  0  0  0
    7.2169    4.1546    0.0000 H   0  0  0  0  0  0  0  0  0  0  0  0
    2.3291   -4.3100    0.0000 H   0  0  0  0  0  0  0  0  0  0  0  0
    4.0611    3.3100    0.0000 H   0  0  0  0  0  0  0  0  0  0  0  0
    8.6659    1.6671    0.0000 H   0  0  0  0  0  0  0  0  0  0  0  0
    2.3100   -1.9631    0.0000 H   0  0  0  0  0  0  0  0  0  0  0  0
    1.4631   -2.1900    0.0000 H   0  0  0  0  0  0  0  0  0  0  0  0
    1.6900   -3.0369    0.0000 H   0  0  0  0  0  0  0  0  0  0  0  0
    8.6659    3.3329    0.0000 H   0  0  0  0  0  0  0  0  0  0  0  0
    5.1350   -4.3100    0.0000 H   0  0  0  0  0  0  0  0  0  0  0  0
    3.7320   -5.1200    0.0000 H   0  0  0  0  0  0  0  0  0  0  0  0
  1 12  2  0  0  0  0
  2 15  2  0  0  0  0
  3  9  1  0  0  0  0
  3 12  1  0  0  0  0
  3 28  1  0  0  0  0
  4  5  1  0  0  0  0
  4  7  2  0  0  0  0
  5 15  1  0  0  0  0
  5 33  1  0  0  0  0
  6  7  1  0  0  0  0
  6 11  1  0  0  0  0
  6 14  2  0  0  0  0
  7  8  1  0  0  0  0
  8 12  1  0  0  0  0
  8 24  1  0  0  0  0
  8 25  1  0  0  0  0
  9 10  1  0  0  0  0
  9 26  1  0  0  0  0
  9 27  1  0  0  0  0
 10 13  1  0  0  0  0
 10 16  2  0  0  0  0
 11 15  1  0  0  0  0
 11 17  2  0  0  0  0
 13 18  2  0  0  0  0
 13 20  1  0  0  0  0
 14 19  1  0  0  0  0
 14 29  1  0  0  0  0
 16 22  1  0  0  0  0
 16 30  1  0  0  0  0
 17 21  1  0  0  0  0
 17 31  1  0  0  0  0
 18 23  1  0  0  0  0
 18 32  1  0  0  0  0
 19 21  2  0  0  0  0
 19 34  1  0  0  0  0
 20 35  1  0  0  0  0
 20 36  1  0  0  0  0
 20 37  1  0  0  0  0
 21 38  1  0  0  0  0
 22 23  2  0  0  0  0
 22 39  1  0  0  0  0
 23 40  1  0  0  0  0
M  END
> <PUBCHEM_COMPOUND_CID>
17395449

> <PUBCHEM_COMPOUND_CANONICALIZED>
1

> <PUBCHEM_CACTVS_COMPLEXITY>
489

> <PUBCHEM_CACTVS_HBOND_ACCEPTOR>
3

> <PUBCHEM_CACTVS_HBOND_DONOR>
2

> <PUBCHEM_CACTVS_ROTATABLE_BOND>
4

> <PUBCHEM_CACTVS_SUBSKEYS>
AAADceB7MAAAAAAAAAAAAAAAAAAAAAAAAAAwYIAAAAAAAACBQAAAHgAYAAAADAjBmAQyAILiAACoAyFyEACSAAAkAAAaiIE4BNgIILKAlRGEIQhgngCIiYcYiICOgAAAAAAQAAAAAAAAACAAAAAAAAAAAA==

> <PUBCHEM_IUPAC_OPENEYE_NAME>
N-(o-tolylmethyl)-2-(4-oxo-3H-phthalazin-1-yl)acetamide

> <PUBCHEM_IUPAC_CAS_NAME>
N-[(2-methylphenyl)methyl]-2-(4-oxo-3H-phthalazin-1-yl)acetamide

> <PUBCHEM_IUPAC_NAME>
N-[(2-methylphenyl)methyl]-2-(4-oxo-3H-phthalazin-1-yl)acetamide

> <PUBCHEM_IUPAC_SYSTEMATIC_NAME>
N-[(2-methylphenyl)methyl]-2-(4-oxidanylidene-3H-phthalazin-1-yl)ethanamide

> <PUBCHEM_IUPAC_TRADITIONAL_NAME>
2-(4-keto-3H-phthalazin-1-yl)-N-(2-methylbenzyl)acetamide

> <PUBCHEM_IUPAC_INCHI>
InChI=1S/C18H17N3O2/c1-12-6-2-3-7-13(12)11-19-17(22)10-16-14-8-4-5-9-15(14)18(23)21-20-16/h2-9H,10-11H2,1H3,(H,19,22)(H,21,23)

> <PUBCHEM_IUPAC_INCHIKEY>
RIUDDIHAJHCYDN-UHFFFAOYSA-N

> <PUBCHEM_XLOGP3_AA>
2.3

> <PUBCHEM_EXACT_MASS>
307.132077

> <PUBCHEM_MOLECULAR_FORMULA>
C18H17N3O2

> <PUBCHEM_MOLECULAR_WEIGHT>
307.34648

> <PUBCHEM_OPENEYE_CAN_SMILES>
CC1=CC=CC=C1CNC(=O)CC2=NNC(=O)C3=CC=CC=C32

> <PUBCHEM_OPENEYE_ISO_SMILES>
CC1=CC=CC=C1CNC(=O)CC2=NNC(=O)C3=CC=CC=C32

> <PUBCHEM_CACTVS_TPSA>
70.6

> <PUBCHEM_MONOISOTOPIC_WEIGHT>
307.132077

> <PUBCHEM_TOTAL_CHARGE>
0

> <PUBCHEM_HEAVY_ATOM_COUNT>
23

> <PUBCHEM_ATOM_DEF_STEREO_COUNT>
0

> <PUBCHEM_ATOM_UDEF_STEREO_COUNT>
0

> <PUBCHEM_BOND_DEF_STEREO_COUNT>
0

> <PUBCHEM_BOND_UDEF_STEREO_COUNT>
0

> <PUBCHEM_ISOTOPIC_ATOM_COUNT>
0

> <PUBCHEM_COMPONENT_COUNT>
1

> <PUBCHEM_CACTVS_TAUTO_COUNT>
4

> <PUBCHEM_COORDINATE_TYPE>
1
5
255

> <PUBCHEM_BONDANNOTATIONS>
10  13  8
10  16  8
11  15  8
11  17  8
13  18  8
14  19  8
16  22  8
17  21  8
18  23  8
19  21  8
22  23  8
4  5  8
4  7  8
5  15  8
6  11  8
6  14  8
6  7  8

$$$$

