854074
  -OEChem-06241222473D

 36 37  0     1  0  0  0  0  0999 V2000
   -0.2399    1.8405   -0.5474 O   0  0  0  0  0  0  0  0  0  0  0  0
    1.4135   -2.5716    0.1210 O   0  0  0  0  0  0  0  0  0  0  0  0
   -1.9775   -0.1552   -0.1314 N   0  0  3  0  0  0  0  0  0  0  0  0
   -4.5685    1.9660    0.5105 N   0  0  0  0  0  0  0  0  0  0  0  0
    3.1539    0.6503    0.1500 C   0  0  0  0  0  0  0  0  0  0  0  0
    2.1239    1.5120   -0.6008 C   0  0  0  0  0  0  0  0  0  0  0  0
    2.9996   -0.8268   -0.2516 C   0  0  0  0  0  0  0  0  0  0  0  0
   -0.7860   -0.8553   -0.0518 C   0  0  0  0  0  0  0  0  0  0  0  0
    0.4684   -0.4050   -0.1809 C   0  0  0  0  0  0  0  0  0  0  0  0
   -1.1057   -2.3094    0.2022 C   0  0  0  0  0  0  0  0  0  0  0  0
   -2.5756   -2.3995   -0.2135 C   0  0  0  0  0  0  0  0  0  0  0  0
   -3.1405   -1.0066    0.0703 C   0  0  0  0  0  0  0  0  0  0  0  0
    0.6932    1.0478   -0.4306 C   0  0  0  0  0  0  0  0  0  0  0  0
    1.5990   -1.3702   -0.0660 C   0  0  0  0  0  0  0  0  0  0  0  0
    4.5676    1.1205   -0.2459 C   0  0  0  0  0  0  0  0  0  0  0  0
    3.0074    0.8231    1.6750 C   0  0  0  0  0  0  0  0  0  0  0  0
   -2.1383    1.2790   -0.2039 C   0  0  0  0  0  0  0  0  0  0  0  0
   -3.4944    1.6606    0.1948 C   0  0  0  0  0  0  0  0  0  0  0  0
    2.3319    1.5125   -1.6782 H   0  0  0  0  0  0  0  0  0  0  0  0
    2.1839    2.5501   -0.2508 H   0  0  0  0  0  0  0  0  0  0  0  0
    3.6818   -1.4459    0.3443 H   0  0  0  0  0  0  0  0  0  0  0  0
    3.2590   -0.9699   -1.3081 H   0  0  0  0  0  0  0  0  0  0  0  0
   -0.5875   -3.0316   -0.4315 H   0  0  0  0  0  0  0  0  0  0  0  0
   -0.9933   -2.5585    1.2628 H   0  0  0  0  0  0  0  0  0  0  0  0
   -2.6466   -2.6138   -1.2882 H   0  0  0  0  0  0  0  0  0  0  0  0
   -3.1174   -3.1862    0.3201 H   0  0  0  0  0  0  0  0  0  0  0  0
   -3.4941   -0.9469    1.1065 H   0  0  0  0  0  0  0  0  0  0  0  0
   -3.9630   -0.7920   -0.6203 H   0  0  0  0  0  0  0  0  0  0  0  0
    5.3381    0.5308    0.2635 H   0  0  0  0  0  0  0  0  0  0  0  0
    4.7231    2.1728    0.0180 H   0  0  0  0  0  0  0  0  0  0  0  0
    4.7324    1.0209   -1.3247 H   0  0  0  0  0  0  0  0  0  0  0  0
    3.7580    0.2305    2.2106 H   0  0  0  0  0  0  0  0  0  0  0  0
    2.0238    0.5101    2.0386 H   0  0  0  0  0  0  0  0  0  0  0  0
    3.1452    1.8709    1.9657 H   0  0  0  0  0  0  0  0  0  0  0  0
   -1.6541    1.7654    0.6593 H   0  0  0  0  0  0  0  0  0  0  0  0
   -2.0743    1.6561   -1.2343 H   0  0  0  0  0  0  0  0  0  0  0  0
  1 13  2  0  0  0  0
  2 14  2  0  0  0  0
  3  8  1  0  0  0  0
  3 12  1  0  0  0  0
  3 17  1  0  0  0  0
  4 18  3  0  0  0  0
  5  6  1  0  0  0  0
  5  7  1  0  0  0  0
  5 15  1  0  0  0  0
  5 16  1  0  0  0  0
  6 13  1  0  0  0  0
  6 19  1  0  0  0  0
  6 20  1  0  0  0  0
  7 14  1  0  0  0  0
  7 21  1  0  0  0  0
  7 22  1  0  0  0  0
  8  9  2  0  0  0  0
  8 10  1  0  0  0  0
  9 13  1  0  0  0  0
  9 14  1  0  0  0  0
 10 11  1  0  0  0  0
 10 23  1  0  0  0  0
 10 24  1  0  0  0  0
 11 12  1  0  0  0  0
 11 25  1  0  0  0  0
 11 26  1  0  0  0  0
 12 27  1  0  0  0  0
 12 28  1  0  0  0  0
 15 29  1  0  0  0  0
 15 30  1  0  0  0  0
 15 31  1  0  0  0  0
 16 32  1  0  0  0  0
 16 33  1  0  0  0  0
 16 34  1  0  0  0  0
 17 18  1  0  0  0  0
 17 35  1  0  0  0  0
 17 36  1  0  0  0  0
M  END
> <PUBCHEM_COMPOUND_CID>
854074

> <PUBCHEM_CONFORMER_RMSD>
0.6

> <PUBCHEM_CONFORMER_DIVERSEORDER>
1
2

> <PUBCHEM_MMFF94_PARTIAL_CHARGES>
14
1 -0.57
10 0.14
12 0.37
13 0.49
14 0.49
17 0.57
18 0.36
2 -0.57
3 -0.84
4 -0.56
6 0.06
7 0.06
8 -0.04
9 0.03

> <PUBCHEM_EFFECTIVE_ROTOR_COUNT>
2.4

> <PUBCHEM_PHARMACOPHORE_FEATURES>
8
1 1 acceptor
1 2 acceptor
1 3 cation
1 4 acceptor
1 9 anion
3 5 15 16 hydrophobe
5 3 8 10 11 12 rings
6 5 6 7 9 13 14 rings

> <PUBCHEM_HEAVY_ATOM_COUNT>
18

> <PUBCHEM_ATOM_DEF_STEREO_COUNT>
0

> <PUBCHEM_ATOM_UDEF_STEREO_COUNT>
0

> <PUBCHEM_BOND_DEF_STEREO_COUNT>
0

> <PUBCHEM_BOND_UDEF_STEREO_COUNT>
0

> <PUBCHEM_ISOTOPIC_ATOM_COUNT>
0

> <PUBCHEM_COMPONENT_COUNT>
1

> <PUBCHEM_CACTVS_TAUTO_COUNT>
8

> <PUBCHEM_CONFORMER_ID>
000D083A00000001

> <PUBCHEM_MMFF94_ENERGY>
97.2803

> <PUBCHEM_FEATURE_SELFOVERLAP>
40.594

> <PUBCHEM_SHAPE_FINGERPRINT>
10411042 1 17329989097682504398
10493431 412 18410851088215867161
10608611 8 18335422339718168328
10616163 171 18339638932408973838
10646746 165 18334297530949459208
10967382 1 18267865171368931767
11132069 177 18341620312586713728
11680986 33 18339633563773758731
12382932 28 18411140242272024920
12390115 104 18191009137264204704
12500047 106 18334860514993612968
13140716 1 18340771558255980531
13380535 21 18410290345537720574
13544592 145 18189323744693722310
14178342 30 18340216218936693194
14790565 3 18198050396907007604
14897335 6 18410013264745050933
15196674 1 18411417315176230542
15442244 35 18340208591217466346
15536298 74 18335137639131354182
16752209 62 18266460914563206526
16945 1 18267020548780906207
1741750 31 18261110794378025387
18186145 218 18265053711720957869
19591789 44 17907575083770964709
20510252 161 18190176776369173600
20525323 117 18338805519832972119
20739085 24 17837184323802743321
21267235 1 18268701732103623142
21501502 16 18411706495118827630
2334 1 18412265042794048183
23388829 49 18124320406373677783
23402539 116 18264215712315413767
23463225 33 18200317615393951830
23557571 272 18114736040850054943
23558518 356 17984979289248736873
23559900 14 18334011727204714566
2748010 2 18340482378313422295
335352 9 18267302213094880918
34934 24 18343024419100251661
350125 39 18267859480711740525
495365 180 17458923629043888864
5104073 3 18412546513602139538
53812653 166 18408324414600119264
69090 78 18410858802198391037
7364860 26 18190179186162564950
7832392 63 18410292536044836103
90316 7 17845396425736894404
9709674 26 18335978692517868982

> <PUBCHEM_SHAPE_MULTIPOLES>
348.73
7.21
2.7
0.84
0.04
0.85
-0.25
-3.31
-0.84
-1.94
0
0.52
-0.2
-0.22

> <PUBCHEM_SHAPE_SELFOVERLAP>
737.076

> <PUBCHEM_SHAPE_VOLUME>
192.8

> <PUBCHEM_COORDINATE_TYPE>
2
5
10

$$$$

