17396103
  -OEChem-06241222542D

 52 54  0     1  0  0  0  0  0999 V2000
    6.8301   -3.7694    0.0000 S   0  0  0  0  0  0  0  0  0  0  0  0
    6.8301   -4.7694    0.0000 O   0  0  0  0  0  0  0  0  0  0  0  0
    7.7812   -4.0784    0.0000 O   0  0  0  0  0  0  0  0  0  0  0  0
    8.0622   -1.2306    0.0000 O   0  0  0  0  0  0  0  0  0  0  0  0
    3.7320    0.2694    0.0000 O   0  0  0  0  0  0  0  0  0  0  0  0
    6.3301   -1.2306    0.0000 N   0  0  0  0  0  0  0  0  0  0  0  0
    5.4641   -0.7306    0.0000 N   0  0  0  0  0  0  0  0  0  0  0  0
    4.5981    1.7694    0.0000 N   0  0  0  0  0  0  0  0  0  0  0  0
    6.3301   -2.2306    0.0000 C   0  0  3  0  0  0  0  0  0  0  0  0
    7.1391   -2.8184    0.0000 C   0  0  0  0  0  0  0  0  0  0  0  0
    5.5211   -2.8184    0.0000 C   0  0  0  0  0  0  0  0  0  0  0  0
    5.8301   -3.7694    0.0000 C   0  0  0  0  0  0  0  0  0  0  0  0
    7.1962   -0.7306    0.0000 C   0  0  0  0  0  0  0  0  0  0  0  0
    7.1962    0.2694    0.0000 C   0  0  0  0  0  0  0  0  0  0  0  0
    6.3301    0.7694    0.0000 C   0  0  0  0  0  0  0  0  0  0  0  0
    5.4641    0.2694    0.0000 C   0  0  0  0  0  0  0  0  0  0  0  0
    4.5981    0.7694    0.0000 C   0  0  0  0  0  0  0  0  0  0  0  0
    3.7320    2.2694    0.0000 C   0  0  0  0  0  0  0  0  0  0  0  0
    3.7320    3.2694    0.0000 C   0  0  0  0  0  0  0  0  0  0  0  0
    2.8660    1.7694    0.0000 C   0  0  0  0  0  0  0  0  0  0  0  0
    4.5981    3.7694    0.0000 C   0  0  0  0  0  0  0  0  0  0  0  0
    2.8660    0.7694    0.0000 C   0  0  0  0  0  0  0  0  0  0  0  0
    2.8660    3.7694    0.0000 C   0  0  0  0  0  0  0  0  0  0  0  0
    2.0000    2.2694    0.0000 C   0  0  0  0  0  0  0  0  0  0  0  0
    2.0000    3.2694    0.0000 C   0  0  0  0  0  0  0  0  0  0  0  0
    4.5981    4.7694    0.0000 C   0  0  0  0  0  0  0  0  0  0  0  0
    2.0000    0.2694    0.0000 C   0  0  0  0  0  0  0  0  0  0  0  0
    6.8826   -1.9491    0.0000 H   0  0  0  0  0  0  0  0  0  0  0  0
    7.7055   -3.0705    0.0000 H   0  0  0  0  0  0  0  0  0  0  0  0
    7.4491   -2.2814    0.0000 H   0  0  0  0  0  0  0  0  0  0  0  0
    5.2111   -2.2814    0.0000 H   0  0  0  0  0  0  0  0  0  0  0  0
    4.9547   -3.0705    0.0000 H   0  0  0  0  0  0  0  0  0  0  0  0
    5.2237   -3.8983    0.0000 H   0  0  0  0  0  0  0  0  0  0  0  0
    5.8949   -4.3860    0.0000 H   0  0  0  0  0  0  0  0  0  0  0  0
    7.8067    0.1618    0.0000 H   0  0  0  0  0  0  0  0  0  0  0  0
    7.4082    0.8520    0.0000 H   0  0  0  0  0  0  0  0  0  0  0  0
    6.7287    1.2444    0.0000 H   0  0  0  0  0  0  0  0  0  0  0  0
    5.9316    1.2444    0.0000 H   0  0  0  0  0  0  0  0  0  0  0  0
    5.1350    2.0794    0.0000 H   0  0  0  0  0  0  0  0  0  0  0  0
    4.8101    3.1868    0.0000 H   0  0  0  0  0  0  0  0  0  0  0  0
    5.2087    3.8771    0.0000 H   0  0  0  0  0  0  0  0  0  0  0  0
    3.0781    0.1868    0.0000 H   0  0  0  0  0  0  0  0  0  0  0  0
    3.4766    0.8771    0.0000 H   0  0  0  0  0  0  0  0  0  0  0  0
    2.8660    4.3894    0.0000 H   0  0  0  0  0  0  0  0  0  0  0  0
    1.4631    1.9594    0.0000 H   0  0  0  0  0  0  0  0  0  0  0  0
    1.4631    3.5794    0.0000 H   0  0  0  0  0  0  0  0  0  0  0  0
    5.2181    4.7694    0.0000 H   0  0  0  0  0  0  0  0  0  0  0  0
    4.5981    5.3894    0.0000 H   0  0  0  0  0  0  0  0  0  0  0  0
    3.9781    4.7694    0.0000 H   0  0  0  0  0  0  0  0  0  0  0  0
    1.6900    0.8064    0.0000 H   0  0  0  0  0  0  0  0  0  0  0  0
    1.4631   -0.0406    0.0000 H   0  0  0  0  0  0  0  0  0  0  0  0
    2.3100   -0.2675    0.0000 H   0  0  0  0  0  0  0  0  0  0  0  0
  1  2  2  0  0  0  0
  1  3  2  0  0  0  0
  1 10  1  0  0  0  0
  1 12  1  0  0  0  0
  4 13  2  0  0  0  0
  5 17  2  0  0  0  0
  6  7  1  0  0  0  0
  6  9  1  0  0  0  0
  6 13  1  0  0  0  0
  7 16  2  0  0  0  0
  8 17  1  0  0  0  0
  8 18  1  0  0  0  0
  8 39  1  0  0  0  0
  9 10  1  0  0  0  0
  9 11  1  0  0  0  0
  9 28  1  0  0  0  0
 10 29  1  0  0  0  0
 10 30  1  0  0  0  0
 11 12  1  0  0  0  0
 11 31  1  0  0  0  0
 11 32  1  0  0  0  0
 12 33  1  0  0  0  0
 12 34  1  0  0  0  0
 13 14  1  0  0  0  0
 14 15  1  0  0  0  0
 14 35  1  0  0  0  0
 14 36  1  0  0  0  0
 15 16  1  0  0  0  0
 15 37  1  0  0  0  0
 15 38  1  0  0  0  0
 16 17  1  0  0  0  0
 18 19  2  0  0  0  0
 18 20  1  0  0  0  0
 19 21  1  0  0  0  0
 19 23  1  0  0  0  0
 20 22  1  0  0  0  0
 20 24  2  0  0  0  0
 21 26  1  0  0  0  0
 21 40  1  0  0  0  0
 21 41  1  0  0  0  0
 22 27  1  0  0  0  0
 22 42  1  0  0  0  0
 22 43  1  0  0  0  0
 23 25  2  0  0  0  0
 23 44  1  0  0  0  0
 24 25  1  0  0  0  0
 24 45  1  0  0  0  0
 25 46  1  0  0  0  0
 26 47  1  0  0  0  0
 26 48  1  0  0  0  0
 26 49  1  0  0  0  0
 27 50  1  0  0  0  0
 27 51  1  0  0  0  0
 27 52  1  0  0  0  0
M  END
> <PUBCHEM_COMPOUND_CID>
17396103

> <PUBCHEM_COMPOUND_CANONICALIZED>
1

> <PUBCHEM_CACTVS_COMPLEXITY>
701

> <PUBCHEM_CACTVS_HBOND_ACCEPTOR>
5

> <PUBCHEM_CACTVS_HBOND_DONOR>
1

> <PUBCHEM_CACTVS_ROTATABLE_BOND>
5

> <PUBCHEM_CACTVS_SUBSKEYS>
AAADceB7OABAAAAAAAAAAAAAAAAAASAAAAAwQAAAAAAAAAABAAAAHgQYAAAADCjF2ASywILAAAqoAyVyUHDSAAAhABAaiAE4RIgIIDLgkZGEIAhgjgDoyAcYg8AOAAACAAACAAAAAAQAAAQAAAAAAAAAAA==

> <PUBCHEM_IUPAC_OPENEYE_NAME>
N-(2,6-diethylphenyl)-1-(1,1-dioxothiolan-3-yl)-6-oxo-4,5-dihydropyridazine-3-carboxamide

> <PUBCHEM_IUPAC_CAS_NAME>
N-(2,6-diethylphenyl)-1-(1,1-dioxo-3-thiolanyl)-6-oxo-4,5-dihydropyridazine-3-carboxamide

> <PUBCHEM_IUPAC_NAME>
N-(2,6-diethylphenyl)-1-(1,1-dioxothiolan-3-yl)-6-oxo-4,5-dihydropyridazine-3-carboxamide

> <PUBCHEM_IUPAC_SYSTEMATIC_NAME>
1-[1,1-bis(oxidanylidene)thiolan-3-yl]-N-(2,6-diethylphenyl)-6-oxidanylidene-4,5-dihydropyridazine-3-carboxamide

> <PUBCHEM_IUPAC_TRADITIONAL_NAME>
N-(2,6-diethylphenyl)-1-(1,1-diketothiolan-3-yl)-6-keto-4,5-dihydropyridazine-3-carboxamide

> <PUBCHEM_IUPAC_INCHI>
InChI=1S/C19H25N3O4S/c1-3-13-6-5-7-14(4-2)18(13)20-19(24)16-8-9-17(23)22(21-16)15-10-11-27(25,26)12-15/h5-7,15H,3-4,8-12H2,1-2H3,(H,20,24)

> <PUBCHEM_IUPAC_INCHIKEY>
XFXCNEXLNHKCMS-UHFFFAOYSA-N

> <PUBCHEM_XLOGP3_AA>
1.6

> <PUBCHEM_EXACT_MASS>
391.156577

> <PUBCHEM_MOLECULAR_FORMULA>
C19H25N3O4S

> <PUBCHEM_MOLECULAR_WEIGHT>
391.4845

> <PUBCHEM_OPENEYE_CAN_SMILES>
CCC1=C(C(=CC=C1)CC)NC(=O)C2=NN(C(=O)CC2)C3CCS(=O)(=O)C3

> <PUBCHEM_OPENEYE_ISO_SMILES>
CCC1=C(C(=CC=C1)CC)NC(=O)C2=NN(C(=O)CC2)C3CCS(=O)(=O)C3

> <PUBCHEM_CACTVS_TPSA>
104

> <PUBCHEM_MONOISOTOPIC_WEIGHT>
391.156577

> <PUBCHEM_TOTAL_CHARGE>
0

> <PUBCHEM_HEAVY_ATOM_COUNT>
27

> <PUBCHEM_ATOM_DEF_STEREO_COUNT>
0

> <PUBCHEM_ATOM_UDEF_STEREO_COUNT>
1

> <PUBCHEM_BOND_DEF_STEREO_COUNT>
0

> <PUBCHEM_BOND_UDEF_STEREO_COUNT>
0

> <PUBCHEM_ISOTOPIC_ATOM_COUNT>
0

> <PUBCHEM_COMPONENT_COUNT>
1

> <PUBCHEM_CACTVS_TAUTO_COUNT>
62

> <PUBCHEM_COORDINATE_TYPE>
1
5
255

> <PUBCHEM_BONDANNOTATIONS>
18  19  8
18  20  8
19  23  8
20  24  8
23  25  8
24  25  8
9  6  3

$$$$

