583413
  -OEChem-06241222452D

 35 38  0     1  0  0  0  0  0999 V2000
    4.7812   -1.3226    0.0000 O   0  0  0  0  0  0  0  0  0  0  0  0
    6.7237    0.8857    0.0000 O   0  0  0  0  0  0  0  0  0  0  0  0
    2.8541   -0.3716    0.0000 C   0  0  3  0  0  0  0  0  0  0  0  0
    3.6632   -0.9594    0.0000 C   0  0  3  0  0  0  0  0  0  0  0  0
    2.7493   -1.3665    0.0000 C   0  0  3  0  0  0  0  0  0  0  0  0
    3.1632    0.5795    0.0000 C   0  0  3  0  0  0  0  0  0  0  0  0
    4.4722   -0.3716    0.0000 C   0  0  3  0  0  0  0  0  0  0  0  0
    4.1632    0.5795    0.0000 C   0  0  3  0  0  0  0  0  0  0  0  0
    2.0000   -0.7021    0.0000 C   0  0  0  0  0  0  0  0  0  0  0  0
    2.2083    0.2775    0.0000 C   0  0  0  0  0  0  0  0  0  0  0  0
    5.4662   -0.3690    0.0000 C   0  0  0  0  0  0  0  0  0  0  0  0
    4.9689    1.1617    0.0000 C   0  0  0  0  0  0  0  0  0  0  0  0
    5.7726    0.5767    0.0000 C   0  0  3  0  0  0  0  0  0  0  0  0
    3.8541    1.5305    0.0000 C   0  0  0  0  0  0  0  0  0  0  0  0
    5.7593   -1.5305    0.0000 C   0  0  0  0  0  0  0  0  0  0  0  0
    2.2477   -0.2426    0.0000 H   0  0  0  0  0  0  0  0  0  0  0  0
    3.9732   -1.4962    0.0000 H   0  0  0  0  0  0  0  0  0  0  0  0
    2.6547   -1.9792    0.0000 H   0  0  0  0  0  0  0  0  0  0  0  0
    3.0686    1.1922    0.0000 H   0  0  0  0  0  0  0  0  0  0  0  0
    1.4246   -0.4712    0.0000 H   0  0  0  0  0  0  0  0  0  0  0  0
    1.6741   -1.2295    0.0000 H   0  0  0  0  0  0  0  0  0  0  0  0
    2.1252    0.8919    0.0000 H   0  0  0  0  0  0  0  0  0  0  0  0
    1.5888    0.3008    0.0000 H   0  0  0  0  0  0  0  0  0  0  0  0
    5.4027   -0.9857    0.0000 H   0  0  0  0  0  0  0  0  0  0  0  0
    6.0729   -0.4970    0.0000 H   0  0  0  0  0  0  0  0  0  0  0  0
    5.3844    1.6218    0.0000 H   0  0  0  0  0  0  0  0  0  0  0  0
    4.5550    1.6233    0.0000 H   0  0  0  0  0  0  0  0  0  0  0  0
    6.2112    0.1385    0.0000 H   0  0  0  0  0  0  0  0  0  0  0  0
    4.4438    1.7221    0.0000 H   0  0  0  0  0  0  0  0  0  0  0  0
    3.6625    2.1202    0.0000 H   0  0  0  0  0  0  0  0  0  0  0  0
    3.2645    1.3390    0.0000 H   0  0  0  0  0  0  0  0  0  0  0  0
    6.8526    1.4922    0.0000 H   0  0  0  0  0  0  0  0  0  0  0  0
    5.6304   -2.1370    0.0000 H   0  0  0  0  0  0  0  0  0  0  0  0
    6.3658   -1.6594    0.0000 H   0  0  0  0  0  0  0  0  0  0  0  0
    5.8882   -0.9241    0.0000 H   0  0  0  0  0  0  0  0  0  0  0  0
  1  7  1  0  0  0  0
  1 15  1  0  0  0  0
  2 13  1  0  0  0  0
  2 32  1  0  0  0  0
  3  4  1  0  0  0  0
  3  5  1  0  0  0  0
  3  6  1  0  0  0  0
  3 16  1  0  0  0  0
  4  5  1  0  0  0  0
  4  7  1  0  0  0  0
  4 17  1  0  0  0  0
  5  9  1  0  0  0  0
  5 18  1  0  0  0  0
  6  8  1  0  0  0  0
  6 10  1  0  0  0  0
  6 19  1  0  0  0  0
  7  8  1  0  0  0  0
  7 11  1  0  0  0  0
  8 12  1  0  0  0  0
  8 14  1  0  0  0  0
  9 10  1  0  0  0  0
  9 20  1  0  0  0  0
  9 21  1  0  0  0  0
 10 22  1  0  0  0  0
 10 23  1  0  0  0  0
 11 13  1  0  0  0  0
 11 24  1  0  0  0  0
 11 25  1  0  0  0  0
 12 13  1  0  0  0  0
 12 26  1  0  0  0  0
 12 27  1  0  0  0  0
 13 28  1  0  0  0  0
 14 29  1  0  0  0  0
 14 30  1  0  0  0  0
 14 31  1  0  0  0  0
 15 33  1  0  0  0  0
 15 34  1  0  0  0  0
 15 35  1  0  0  0  0
M  END
> <PUBCHEM_COMPOUND_CID>
583413

> <PUBCHEM_COMPOUND_CANONICALIZED>
1

> <PUBCHEM_CACTVS_COMPLEXITY>
329

> <PUBCHEM_CACTVS_HBOND_ACCEPTOR>
2

> <PUBCHEM_CACTVS_HBOND_DONOR>
1

> <PUBCHEM_CACTVS_ROTATABLE_BOND>
1

> <PUBCHEM_CACTVS_SUBSKEYS>
AAADceBwMAAAAAAAAAAAAAAAGAAAAYMGAAAAAAAABgAYAAAAAAAAGgAACAAAD1SggAICAAAABgAAAAAAAAAAAAAAAAAAAAAAAAAAEAIAAAAAQAAFAAAAAAHAwPAPgAAAAAAAAACAAAYAADAAAYQADAAAAA==

> <PUBCHEM_IUPAC_INCHI>
InChI=1S/C13H20O2/c1-12-5-7(14)6-13(12,15-2)11-8-3-4-9(12)10(8)11/h7-11,14H,3-6H2,1-2H3

> <PUBCHEM_IUPAC_INCHIKEY>
XCMDAXBBDZJPJO-UHFFFAOYSA-N

> <PUBCHEM_XLOGP3_AA>
1.9

> <PUBCHEM_EXACT_MASS>
208.14633

> <PUBCHEM_MOLECULAR_FORMULA>
C13H20O2

> <PUBCHEM_MOLECULAR_WEIGHT>
208.2967

> <PUBCHEM_OPENEYE_CAN_SMILES>
CC12CC(CC1(C3C4C3C2CC4)OC)O

> <PUBCHEM_OPENEYE_ISO_SMILES>
CC12CC(CC1(C3C4C3C2CC4)OC)O

> <PUBCHEM_CACTVS_TPSA>
29.5

> <PUBCHEM_MONOISOTOPIC_WEIGHT>
208.14633

> <PUBCHEM_TOTAL_CHARGE>
0

> <PUBCHEM_HEAVY_ATOM_COUNT>
15

> <PUBCHEM_ATOM_DEF_STEREO_COUNT>
0

> <PUBCHEM_ATOM_UDEF_STEREO_COUNT>
7

> <PUBCHEM_BOND_DEF_STEREO_COUNT>
0

> <PUBCHEM_BOND_UDEF_STEREO_COUNT>
0

> <PUBCHEM_ISOTOPIC_ATOM_COUNT>
0

> <PUBCHEM_COMPONENT_COUNT>
1

> <PUBCHEM_CACTVS_TAUTO_COUNT>
1

> <PUBCHEM_COORDINATE_TYPE>
1
5
255

> <PUBCHEM_BONDANNOTATIONS>
7  1  3
13  2  3
4  3  3
5  9  3
6  10  3
8  14  3

$$$$

