3507
  -OEChem-06251223272D

102107  0     1  0  0  0  0  0999 V2000
   13.8007    1.5655    0.0000 S   0  0  0  0  0  0  0  0  0  0  0  0
   10.7619    1.9315    0.0000 O   0  0  0  0  0  0  0  0  0  0  0  0
    9.7619    1.9315    0.0000 O   0  0  0  0  0  0  0  0  0  0  0  0
   13.5917   -1.4236    0.0000 O   0  0  0  0  0  0  0  0  0  0  0  0
   14.8188    1.9667    0.0000 O   0  0  0  0  0  0  0  0  0  0  0  0
    8.2619    2.7975    0.0000 O   0  0  0  0  0  0  0  0  0  0  0  0
   12.8497    0.2564    0.0000 N   0  0  0  0  0  0  0  0  0  0  0  0
   10.7619    0.1994    0.0000 N   0  0  0  0  0  0  0  0  0  0  0  0
   15.5233    0.3844    0.0000 N   0  0  0  0  0  0  0  0  0  0  0  0
   15.3142   -1.6046    0.0000 N   0  0  0  0  0  0  0  0  0  0  0  0
    6.7619    1.9315    0.0000 N   0  0  0  0  0  0  0  0  0  0  0  0
    4.6783    3.6022    0.0000 N   0  0  0  0  0  0  0  0  0  0  0  0
    4.6783    1.9928    0.0000 N   0  0  0  0  0  0  0  0  0  0  0  0
   12.8497    1.8745    0.0000 C   0  0  0  0  0  0  0  0  0  0  0  0
   12.2619    1.0655    0.0000 C   0  0  3  0  0  0  0  0  0  0  0  0
   13.8007    0.5655    0.0000 C   0  0  3  0  0  0  0  0  0  0  0  0
   14.6097   -0.0223    0.0000 C   0  0  3  0  0  0  0  0  0  0  0  0
   13.1587    2.8255    0.0000 C   0  0  0  0  0  0  0  0  0  0  0  0
   12.0406    2.4623    0.0000 C   0  0  0  0  0  0  0  0  0  0  0  0
   11.2619    1.0655    0.0000 C   0  0  0  0  0  0  0  0  0  0  0  0
    9.7619    0.1994    0.0000 C   0  0  3  0  0  0  0  0  0  0  0  0
   14.5052   -1.0168    0.0000 C   0  0  0  0  0  0  0  0  0  0  0  0
    9.2619    1.0655    0.0000 C   0  0  3  0  0  0  0  0  0  0  0  0
    9.2619   -0.6666    0.0000 C   0  0  0  0  0  0  0  0  0  0  0  0
    8.2619    1.0655    0.0000 C   0  0  0  0  0  0  0  0  0  0  0  0
   15.6278    1.3789    0.0000 C   0  0  0  0  0  0  0  0  0  0  0  0
    9.7619   -1.5326    0.0000 C   0  0  0  0  0  0  0  0  0  0  0  0
   15.2097   -2.5992    0.0000 C   0  0  0  0  0  0  0  0  0  0  0  0
   16.5414    1.7857    0.0000 C   0  0  0  0  0  0  0  0  0  0  0  0
    7.7619    1.9315    0.0000 C   0  0  0  0  0  0  0  0  0  0  0  0
    9.2619   -2.3986    0.0000 C   0  0  0  0  0  0  0  0  0  0  0  0
   10.7619   -1.5326    0.0000 C   0  0  0  0  0  0  0  0  0  0  0  0
   16.0187   -3.1869    0.0000 C   0  0  0  0  0  0  0  0  0  0  0  0
   16.6459    2.7802    0.0000 C   0  0  0  0  0  0  0  0  0  0  0  0
    9.7619   -3.2647    0.0000 C   0  0  0  0  0  0  0  0  0  0  0  0
   11.2619   -2.3986    0.0000 C   0  0  0  0  0  0  0  0  0  0  0  0
   10.7619   -3.2647    0.0000 C   0  0  0  0  0  0  0  0  0  0  0  0
    6.2619    2.7975    0.0000 C   0  0  0  0  0  0  0  0  0  0  0  0
   15.9142   -4.1815    0.0000 C   0  0  0  0  0  0  0  0  0  0  0  0
   16.9323   -2.7802    0.0000 C   0  0  0  0  0  0  0  0  0  0  0  0
   15.8369    3.3680    0.0000 C   0  0  0  0  0  0  0  0  0  0  0  0
   17.5594    3.1869    0.0000 C   0  0  0  0  0  0  0  0  0  0  0  0
    5.2619    2.7975    0.0000 C   0  0  0  0  0  0  0  0  0  0  0  0
   16.7232   -4.7692    0.0000 C   0  0  0  0  0  0  0  0  0  0  0  0
   17.7413   -3.3680    0.0000 C   0  0  0  0  0  0  0  0  0  0  0  0
   15.9414    4.3625    0.0000 C   0  0  0  0  0  0  0  0  0  0  0  0
   17.6640    4.1815    0.0000 C   0  0  0  0  0  0  0  0  0  0  0  0
   17.6367   -4.3625    0.0000 C   0  0  0  0  0  0  0  0  0  0  0  0
   16.8549    4.7692    0.0000 C   0  0  0  0  0  0  0  0  0  0  0  0
    3.7320    3.2975    0.0000 C   0  0  0  0  0  0  0  0  0  0  0  0
    3.7320    2.2975    0.0000 C   0  0  0  0  0  0  0  0  0  0  0  0
    2.8660    3.7975    0.0000 C   0  0  0  0  0  0  0  0  0  0  0  0
    2.8660    1.7975    0.0000 C   0  0  0  0  0  0  0  0  0  0  0  0
    2.0000    3.2975    0.0000 C   0  0  0  0  0  0  0  0  0  0  0  0
    2.0000    2.2975    0.0000 C   0  0  0  0  0  0  0  0  0  0  0  0
   11.9804    0.5130    0.0000 H   0  0  0  0  0  0  0  0  0  0  0  0
   13.7037   -0.0469    0.0000 H   0  0  0  0  0  0  0  0  0  0  0  0
   12.6581   -0.3332    0.0000 H   0  0  0  0  0  0  0  0  0  0  0  0
   14.6745    0.5943    0.0000 H   0  0  0  0  0  0  0  0  0  0  0  0
   13.7483    2.6340    0.0000 H   0  0  0  0  0  0  0  0  0  0  0  0
   13.3503    3.4152    0.0000 H   0  0  0  0  0  0  0  0  0  0  0  0
   12.5690    3.0171    0.0000 H   0  0  0  0  0  0  0  0  0  0  0  0
   12.4051    2.9639    0.0000 H   0  0  0  0  0  0  0  0  0  0  0  0
   11.5391    2.8267    0.0000 H   0  0  0  0  0  0  0  0  0  0  0  0
   11.6762    1.9607    0.0000 H   0  0  0  0  0  0  0  0  0  0  0  0
   10.0719   -0.3375    0.0000 H   0  0  0  0  0  0  0  0  0  0  0  0
   11.0719   -0.3375    0.0000 H   0  0  0  0  0  0  0  0  0  0  0  0
   16.0249    0.0200    0.0000 H   0  0  0  0  0  0  0  0  0  0  0  0
    8.9519    1.6024    0.0000 H   0  0  0  0  0  0  0  0  0  0  0  0
    8.7869   -0.2681    0.0000 H   0  0  0  0  0  0  0  0  0  0  0  0
    8.7869   -1.0651    0.0000 H   0  0  0  0  0  0  0  0  0  0  0  0
    7.6793    0.8534    0.0000 H   0  0  0  0  0  0  0  0  0  0  0  0
    8.3695    0.4549    0.0000 H   0  0  0  0  0  0  0  0  0  0  0  0
   15.8806   -1.3524    0.0000 H   0  0  0  0  0  0  0  0  0  0  0  0
   14.6137   -2.4282    0.0000 H   0  0  0  0  0  0  0  0  0  0  0  0
   14.9379   -3.1564    0.0000 H   0  0  0  0  0  0  0  0  0  0  0  0
   16.6913    1.1841    0.0000 H   0  0  0  0  0  0  0  0  0  0  0  0
   17.1598    1.8289    0.0000 H   0  0  0  0  0  0  0  0  0  0  0  0
    9.4519    2.4684    0.0000 H   0  0  0  0  0  0  0  0  0  0  0  0
    8.6419   -2.3986    0.0000 H   0  0  0  0  0  0  0  0  0  0  0  0
   11.0719   -0.9957    0.0000 H   0  0  0  0  0  0  0  0  0  0  0  0
    6.4519    1.3946    0.0000 H   0  0  0  0  0  0  0  0  0  0  0  0
    9.4519   -3.8016    0.0000 H   0  0  0  0  0  0  0  0  0  0  0  0
   11.8819   -2.3986    0.0000 H   0  0  0  0  0  0  0  0  0  0  0  0
   11.0719   -3.8016    0.0000 H   0  0  0  0  0  0  0  0  0  0  0  0
    6.8445    3.0096    0.0000 H   0  0  0  0  0  0  0  0  0  0  0  0
    6.1542    3.4081    0.0000 H   0  0  0  0  0  0  0  0  0  0  0  0
   15.3478   -4.4336    0.0000 H   0  0  0  0  0  0  0  0  0  0  0  0
   16.9971   -2.1636    0.0000 H   0  0  0  0  0  0  0  0  0  0  0  0
   15.2705    3.1158    0.0000 H   0  0  0  0  0  0  0  0  0  0  0  0
   18.0610    2.8225    0.0000 H   0  0  0  0  0  0  0  0  0  0  0  0
   16.6584   -5.3858    0.0000 H   0  0  0  0  0  0  0  0  0  0  0  0
   18.3077   -3.1158    0.0000 H   0  0  0  0  0  0  0  0  0  0  0  0
   15.4398    4.7269    0.0000 H   0  0  0  0  0  0  0  0  0  0  0  0
   18.2304    4.4336    0.0000 H   0  0  0  0  0  0  0  0  0  0  0  0
   18.1383   -4.7269    0.0000 H   0  0  0  0  0  0  0  0  0  0  0  0
   16.9198    5.3858    0.0000 H   0  0  0  0  0  0  0  0  0  0  0  0
    4.8709    4.1916    0.0000 H   0  0  0  0  0  0  0  0  0  0  0  0
    2.8660    4.4175    0.0000 H   0  0  0  0  0  0  0  0  0  0  0  0
    2.8660    1.1775    0.0000 H   0  0  0  0  0  0  0  0  0  0  0  0
    1.4631    3.6075    0.0000 H   0  0  0  0  0  0  0  0  0  0  0  0
    1.4631    1.9875    0.0000 H   0  0  0  0  0  0  0  0  0  0  0  0
  1 14  1  0  0  0  0
  1 16  1  0  0  0  0
  2 20  2  0  0  0  0
  3 23  1  0  0  0  0
  3 79  1  0  0  0  0
  4 22  2  0  0  0  0
  5 26  2  0  0  0  0
  6 30  2  0  0  0  0
  7 15  1  0  0  0  0
  7 16  1  0  0  0  0
  7 58  1  0  0  0  0
  8 20  1  0  0  0  0
  8 21  1  0  0  0  0
  8 67  1  0  0  0  0
  9 17  1  0  0  0  0
  9 26  1  0  0  0  0
  9 68  1  0  0  0  0
 10 22  1  0  0  0  0
 10 28  1  0  0  0  0
 10 74  1  0  0  0  0
 11 30  1  0  0  0  0
 11 38  1  0  0  0  0
 11 82  1  0  0  0  0
 12 43  1  0  0  0  0
 12 50  1  0  0  0  0
 12 98  1  0  0  0  0
 13 43  2  0  0  0  0
 13 51  1  0  0  0  0
 14 15  1  0  0  0  0
 14 18  1  0  0  0  0
 14 19  1  0  0  0  0
 15 20  1  0  0  0  0
 15 56  1  0  0  0  0
 16 17  1  0  0  0  0
 16 57  1  0  0  0  0
 17 22  1  0  0  0  0
 17 59  1  0  0  0  0
 18 60  1  0  0  0  0
 18 61  1  0  0  0  0
 18 62  1  0  0  0  0
 19 63  1  0  0  0  0
 19 64  1  0  0  0  0
 19 65  1  0  0  0  0
 21 23  1  0  0  0  0
 21 24  1  0  0  0  0
 21 66  1  0  0  0  0
 23 25  1  0  0  0  0
 23 69  1  0  0  0  0
 24 27  1  0  0  0  0
 24 70  1  0  0  0  0
 24 71  1  0  0  0  0
 25 30  1  0  0  0  0
 25 72  1  0  0  0  0
 25 73  1  0  0  0  0
 26 29  1  0  0  0  0
 27 31  2  0  0  0  0
 27 32  1  0  0  0  0
 28 33  1  0  0  0  0
 28 75  1  0  0  0  0
 28 76  1  0  0  0  0
 29 34  1  0  0  0  0
 29 77  1  0  0  0  0
 29 78  1  0  0  0  0
 31 35  1  0  0  0  0
 31 80  1  0  0  0  0
 32 36  2  0  0  0  0
 32 81  1  0  0  0  0
 33 39  2  0  0  0  0
 33 40  1  0  0  0  0
 34 41  2  0  0  0  0
 34 42  1  0  0  0  0
 35 37  2  0  0  0  0
 35 83  1  0  0  0  0
 36 37  1  0  0  0  0
 36 84  1  0  0  0  0
 37 85  1  0  0  0  0
 38 43  1  0  0  0  0
 38 86  1  0  0  0  0
 38 87  1  0  0  0  0
 39 44  1  0  0  0  0
 39 88  1  0  0  0  0
 40 45  2  0  0  0  0
 40 89  1  0  0  0  0
 41 46  1  0  0  0  0
 41 90  1  0  0  0  0
 42 47  2  0  0  0  0
 42 91  1  0  0  0  0
 44 48  2  0  0  0  0
 44 92  1  0  0  0  0
 45 48  1  0  0  0  0
 45 93  1  0  0  0  0
 46 49  2  0  0  0  0
 46 94  1  0  0  0  0
 47 49  1  0  0  0  0
 47 95  1  0  0  0  0
 48 96  1  0  0  0  0
 49 97  1  0  0  0  0
 50 51  1  0  0  0  0
 50 52  2  0  0  0  0
 51 53  2  0  0  0  0
 52 54  1  0  0  0  0
 52 99  1  0  0  0  0
 53 55  1  0  0  0  0
 53100  1  0  0  0  0
 54 55  2  0  0  0  0
 54101  1  0  0  0  0
 55102  1  0  0  0  0
M  END
> <PUBCHEM_COMPOUND_CID>
3507

> <PUBCHEM_COMPOUND_CANONICALIZED>
1

> <PUBCHEM_CACTVS_COMPLEXITY>
1270

> <PUBCHEM_CACTVS_HBOND_ACCEPTOR>
8

> <PUBCHEM_CACTVS_HBOND_DONOR>
7

> <PUBCHEM_CACTVS_ROTATABLE_BOND>
16

> <PUBCHEM_CACTVS_SUBSKEYS>
AAADcfB/uABAAAAAAAAAAAAAAAAAAWLAAAAwYMGAAAAAAFgB9AAAHgQQCAAADDzl3waz0LbJkgioAydydACCgC3hErAJmaG4dJiKeL7g3bGUYAhutgL4yCecyOCOAAAAAAAAACAAAAAAAAAAQAAAAAAAAA==

> <PUBCHEM_IUPAC_OPENEYE_NAME>
N-[4-(1H-benzimidazol-2-ylmethylamino)-1-benzyl-2-hydroxy-4-oxo-butyl]-2-[2-(benzylamino)-2-oxo-1-[(2-phenylacetyl)amino]ethyl]-5,5-dimethyl-thiazolidine-4-carboxamide

> <PUBCHEM_IUPAC_CAS_NAME>
N-[5-(1H-benzimidazol-2-ylmethylamino)-3-hydroxy-5-oxo-1-phenylpentan-2-yl]-5,5-dimethyl-2-[2-oxo-1-[(1-oxo-2-phenylethyl)amino]-2-[(phenylmethyl)amino]ethyl]-4-thiazolidinecarboxamide

> <PUBCHEM_IUPAC_NAME>
N-[5-(1H-benzimidazol-2-ylmethylamino)-3-hydroxy-5-oxo-1-phenylpentan-2-yl]-2-[2-(benzylamino)-2-oxo-1-[(2-phenylacetyl)amino]ethyl]-5,5-dimethyl-1,3-thiazolidine-4-carboxamide

> <PUBCHEM_IUPAC_SYSTEMATIC_NAME>
N-[5-(1H-benzimidazol-2-ylmethylamino)-3-oxidanyl-5-oxidanylidene-1-phenyl-pentan-2-yl]-5,5-dimethyl-2-[2-oxidanylidene-1-(2-phenylethanoylamino)-2-[(phenylmethyl)amino]ethyl]-1,3-thiazolidine-4-carboxamide

> <PUBCHEM_IUPAC_TRADITIONAL_NAME>
N-[4-(1H-benzimidazol-2-ylmethylamino)-1-benzyl-2-hydroxy-4-keto-butyl]-2-[2-(benzylamino)-2-keto-1-[(2-phenylacetyl)amino]ethyl]-5,5-dimethyl-thiazolidine-4-carboxamide

> <PUBCHEM_IUPAC_INCHI>
InChI=1S/C42H47N7O5S/c1-42(2)38(49-41(55-42)37(39(53)44-25-29-18-10-5-11-19-29)48-36(52)23-28-16-8-4-9-17-28)40(54)47-32(22-27-14-6-3-7-15-27)33(50)24-35(51)43-26-34-45-30-20-12-13-21-31(30)46-34/h3-21,32-33,37-38,41,49-50H,22-26H2,1-2H3,(H,43,51)(H,44,53)(H,45,46)(H,47,54)(H,48,52)

> <PUBCHEM_IUPAC_INCHIKEY>
ZABIWLDXHYJWLT-UHFFFAOYSA-N

> <PUBCHEM_XLOGP3_AA>
3.9

> <PUBCHEM_EXACT_MASS>
761.335939

> <PUBCHEM_MOLECULAR_FORMULA>
C42H47N7O5S

> <PUBCHEM_MOLECULAR_WEIGHT>
761.93148

> <PUBCHEM_OPENEYE_CAN_SMILES>
CC1(C(NC(S1)C(C(=O)NCC2=CC=CC=C2)NC(=O)CC3=CC=CC=C3)C(=O)NC(CC4=CC=CC=C4)C(CC(=O)NCC5=NC6=CC=CC=C6N5)O)C

> <PUBCHEM_OPENEYE_ISO_SMILES>
CC1(C(NC(S1)C(C(=O)NCC2=CC=CC=C2)NC(=O)CC3=CC=CC=C3)C(=O)NC(CC4=CC=CC=C4)C(CC(=O)NCC5=NC6=CC=CC=C6N5)O)C

> <PUBCHEM_CACTVS_TPSA>
203

> <PUBCHEM_MONOISOTOPIC_WEIGHT>
761.335939

> <PUBCHEM_TOTAL_CHARGE>
0

> <PUBCHEM_HEAVY_ATOM_COUNT>
55

> <PUBCHEM_ATOM_DEF_STEREO_COUNT>
0

> <PUBCHEM_ATOM_UDEF_STEREO_COUNT>
5

> <PUBCHEM_BOND_DEF_STEREO_COUNT>
0

> <PUBCHEM_BOND_UDEF_STEREO_COUNT>
0

> <PUBCHEM_ISOTOPIC_ATOM_COUNT>
0

> <PUBCHEM_COMPONENT_COUNT>
1

> <PUBCHEM_CACTVS_TAUTO_COUNT>
16

> <PUBCHEM_COORDINATE_TYPE>
1
5
255

> <PUBCHEM_BONDANNOTATIONS>
16  1  3
12  43  8
12  50  8
13  43  8
13  51  8
15  20  3
17  22  3
21  24  3
27  31  8
27  32  8
23  3  3
31  35  8
32  36  8
33  39  8
33  40  8
34  41  8
34  42  8
35  37  8
36  37  8
39  44  8
40  45  8
41  46  8
42  47  8
44  48  8
45  48  8
46  49  8
47  49  8
50  51  8
50  52  8
51  53  8
52  54  8
53  55  8
54  55  8

$$$$

