5495
  -OEChem-06261200422D

 42 43  0     0  0  0  0  0  0999 V2000
    2.8660    0.0000    0.0000 S   0  0  0  0  0  0  0  0  0  0  0  0
    5.4641   -1.5000    0.0000 O   0  0  0  0  0  0  0  0  0  0  0  0
    4.5981    3.0000    0.0000 O   0  0  0  0  0  0  0  0  0  0  0  0
    6.3301    0.0000    0.0000 O   0  0  0  0  0  0  0  0  0  0  0  0
    4.5981    0.0000    0.0000 N   0  0  0  0  0  0  0  0  0  0  0  0
    5.4641    1.5000    0.0000 N   0  0  0  0  0  0  0  0  0  0  0  0
    2.8660    2.0000    0.0000 C   0  0  0  0  0  0  0  0  0  0  0  0
    3.7320    1.5000    0.0000 C   0  0  0  0  0  0  0  0  0  0  0  0
    3.7320    0.5000    0.0000 C   0  0  0  0  0  0  0  0  0  0  0  0
    2.8660    3.0000    0.0000 C   0  0  0  0  0  0  0  0  0  0  0  0
    2.0000    1.5000    0.0000 C   0  0  0  0  0  0  0  0  0  0  0  0
    4.5981    2.0000    0.0000 C   0  0  0  0  0  0  0  0  0  0  0  0
    4.5981   -1.0000    0.0000 C   0  0  0  0  0  0  0  0  0  0  0  0
    5.4641    0.5000    0.0000 C   0  0  0  0  0  0  0  0  0  0  0  0
    2.8660   -1.0000    0.0000 C   0  0  0  0  0  0  0  0  0  0  0  0
    5.4641   -2.5000    0.0000 C   0  0  0  0  0  0  0  0  0  0  0  0
    3.7320   -1.5000    0.0000 C   0  0  0  0  0  0  0  0  0  0  0  0
    2.0000   -1.5000    0.0000 C   0  0  0  0  0  0  0  0  0  0  0  0
    6.3301   -3.0000    0.0000 C   0  0  0  0  0  0  0  0  0  0  0  0
    3.7320   -2.5000    0.0000 C   0  0  0  0  0  0  0  0  0  0  0  0
    2.0000   -2.5000    0.0000 C   0  0  0  0  0  0  0  0  0  0  0  0
    2.8660   -3.0000    0.0000 C   0  0  0  0  0  0  0  0  0  0  0  0
    2.8660    1.3800    0.0000 H   0  0  0  0  0  0  0  0  0  0  0  0
    3.4860    3.0000    0.0000 H   0  0  0  0  0  0  0  0  0  0  0  0
    2.8660    3.6200    0.0000 H   0  0  0  0  0  0  0  0  0  0  0  0
    2.2460    3.0000    0.0000 H   0  0  0  0  0  0  0  0  0  0  0  0
    1.6900    2.0369    0.0000 H   0  0  0  0  0  0  0  0  0  0  0  0
    1.4631    1.1900    0.0000 H   0  0  0  0  0  0  0  0  0  0  0  0
    2.3100    0.9631    0.0000 H   0  0  0  0  0  0  0  0  0  0  0  0
    3.9875   -0.8923    0.0000 H   0  0  0  0  0  0  0  0  0  0  0  0
    4.3860   -1.5826    0.0000 H   0  0  0  0  0  0  0  0  0  0  0  0
    6.0010    1.8100    0.0000 H   0  0  0  0  0  0  0  0  0  0  0  0
    4.8535   -2.3923    0.0000 H   0  0  0  0  0  0  0  0  0  0  0  0
    5.2520   -3.0826    0.0000 H   0  0  0  0  0  0  0  0  0  0  0  0
    4.2690   -1.1900    0.0000 H   0  0  0  0  0  0  0  0  0  0  0  0
    1.4631   -1.1900    0.0000 H   0  0  0  0  0  0  0  0  0  0  0  0
    6.0201   -3.5369    0.0000 H   0  0  0  0  0  0  0  0  0  0  0  0
    6.8671   -3.3100    0.0000 H   0  0  0  0  0  0  0  0  0  0  0  0
    6.6401   -2.4631    0.0000 H   0  0  0  0  0  0  0  0  0  0  0  0
    4.2690   -2.8100    0.0000 H   0  0  0  0  0  0  0  0  0  0  0  0
    1.4631   -2.8100    0.0000 H   0  0  0  0  0  0  0  0  0  0  0  0
    2.8660   -3.6200    0.0000 H   0  0  0  0  0  0  0  0  0  0  0  0
  1  9  1  0  0  0  0
  1 15  1  0  0  0  0
  2 13  1  0  0  0  0
  2 16  1  0  0  0  0
  3 12  2  0  0  0  0
  4 14  2  0  0  0  0
  5  9  1  0  0  0  0
  5 13  1  0  0  0  0
  5 14  1  0  0  0  0
  6 12  1  0  0  0  0
  6 14  1  0  0  0  0
  6 32  1  0  0  0  0
  7  8  1  0  0  0  0
  7 10  1  0  0  0  0
  7 11  1  0  0  0  0
  7 23  1  0  0  0  0
  8  9  2  0  0  0  0
  8 12  1  0  0  0  0
 10 24  1  0  0  0  0
 10 25  1  0  0  0  0
 10 26  1  0  0  0  0
 11 27  1  0  0  0  0
 11 28  1  0  0  0  0
 11 29  1  0  0  0  0
 13 30  1  0  0  0  0
 13 31  1  0  0  0  0
 15 17  2  0  0  0  0
 15 18  1  0  0  0  0
 16 19  1  0  0  0  0
 16 33  1  0  0  0  0
 16 34  1  0  0  0  0
 17 20  1  0  0  0  0
 17 35  1  0  0  0  0
 18 21  2  0  0  0  0
 18 36  1  0  0  0  0
 19 37  1  0  0  0  0
 19 38  1  0  0  0  0
 19 39  1  0  0  0  0
 20 22  2  0  0  0  0
 20 40  1  0  0  0  0
 21 22  1  0  0  0  0
 21 41  1  0  0  0  0
 22 42  1  0  0  0  0
M  END
> <PUBCHEM_COMPOUND_CID>
5495

> <PUBCHEM_COMPOUND_CANONICALIZED>
1

> <PUBCHEM_CACTVS_COMPLEXITY>
456

> <PUBCHEM_CACTVS_HBOND_ACCEPTOR>
4

> <PUBCHEM_CACTVS_HBOND_DONOR>
1

> <PUBCHEM_CACTVS_ROTATABLE_BOND>
6

> <PUBCHEM_CACTVS_SUBSKEYS>
AAADceB7MABAAAAAAAAAAAAAAAAAAAAAAAAwQAAAAAAAAAABAAAAHgQQAAAADQCh0AYzAYPABAiIAiFSUACCAABgCBAIiBkIAMiIIDKgkRCMIAAohyIIiEcAAAAIAAAAAAAAAAAAAAAAAAAAAAAAAAAAAA==

> <PUBCHEM_IUPAC_OPENEYE_NAME>
1-(ethoxymethyl)-5-isopropyl-6-phenylsulfanyl-pyrimidine-2,4-dione

> <PUBCHEM_IUPAC_CAS_NAME>
1-(ethoxymethyl)-6-(phenylthio)-5-propan-2-ylpyrimidine-2,4-dione

> <PUBCHEM_IUPAC_NAME>
1-(ethoxymethyl)-6-phenylsulfanyl-5-propan-2-ylpyrimidine-2,4-dione

> <PUBCHEM_IUPAC_SYSTEMATIC_NAME>
1-(ethoxymethyl)-6-phenylsulfanyl-5-propan-2-yl-pyrimidine-2,4-dione

> <PUBCHEM_IUPAC_TRADITIONAL_NAME>
1-(ethoxymethyl)-5-isopropyl-6-(phenylthio)pyrimidine-2,4-quinone

> <PUBCHEM_IUPAC_INCHI>
InChI=1S/C16H20N2O3S/c1-4-21-10-18-15(22-12-8-6-5-7-9-12)13(11(2)3)14(19)17-16(18)20/h5-9,11H,4,10H2,1-3H3,(H,17,19,20)

> <PUBCHEM_IUPAC_INCHIKEY>
SFVSRXRSAJNPAC-UHFFFAOYSA-N

> <PUBCHEM_XLOGP3_AA>
2.9

> <PUBCHEM_EXACT_MASS>
320.119464

> <PUBCHEM_MOLECULAR_FORMULA>
C16H20N2O3S

> <PUBCHEM_MOLECULAR_WEIGHT>
320.4066

> <PUBCHEM_OPENEYE_CAN_SMILES>
CCOCN1C(=C(C(=O)NC1=O)C(C)C)SC2=CC=CC=C2

> <PUBCHEM_OPENEYE_ISO_SMILES>
CCOCN1C(=C(C(=O)NC1=O)C(C)C)SC2=CC=CC=C2

> <PUBCHEM_CACTVS_TPSA>
83.9

> <PUBCHEM_MONOISOTOPIC_WEIGHT>
320.119464

> <PUBCHEM_TOTAL_CHARGE>
0

> <PUBCHEM_HEAVY_ATOM_COUNT>
22

> <PUBCHEM_ATOM_DEF_STEREO_COUNT>
0

> <PUBCHEM_ATOM_UDEF_STEREO_COUNT>
0

> <PUBCHEM_BOND_DEF_STEREO_COUNT>
0

> <PUBCHEM_BOND_UDEF_STEREO_COUNT>
0

> <PUBCHEM_ISOTOPIC_ATOM_COUNT>
0

> <PUBCHEM_COMPONENT_COUNT>
1

> <PUBCHEM_CACTVS_TAUTO_COUNT>
3

> <PUBCHEM_COORDINATE_TYPE>
1
5
255

> <PUBCHEM_BONDANNOTATIONS>
15  17  8
15  18  8
17  20  8
18  21  8
20  22  8
21  22  8
5  14  8
5  9  8
6  12  8
6  14  8
8  12  8
8  9  8

$$$$

