583034
  -OEChem-06241222443D

 37 38  0     1  0  0  0  0  0999 V2000
    3.1681    1.9463    1.2042 O   0  0  0  0  0  0  0  0  0  0  0  0
    2.3479    2.7407   -0.7648 O   0  0  0  0  0  0  0  0  0  0  0  0
   -0.1744   -1.0281   -0.3888 C   0  0  1  0  0  0  0  0  0  0  0  0
    1.0057   -0.0110   -0.6244 C   0  0  2  0  0  0  0  0  0  0  0  0
    0.2246   -2.0032    0.7627 C   0  0  0  0  0  0  0  0  0  0  0  0
    2.3586   -0.7273   -0.8194 C   0  0  0  0  0  0  0  0  0  0  0  0
    1.5856   -2.6793    0.5821 C   0  0  0  0  0  0  0  0  0  0  0  0
    2.7010   -1.6773    0.3227 C   0  0  0  0  0  0  0  0  0  0  0  0
   -1.5077   -0.2856   -0.1224 C   0  0  0  0  0  0  0  0  0  0  0  0
   -0.4067   -1.8757   -1.6721 C   0  0  0  0  0  0  0  0  0  0  0  0
    1.1406    1.0387    0.4959 C   0  0  0  0  0  0  0  0  0  0  0  0
   -2.2066   -0.5301    1.0534 C   0  0  0  0  0  0  0  0  0  0  0  0
   -1.9904    0.6172   -1.0619 C   0  0  0  0  0  0  0  0  0  0  0  0
    2.2505    2.0039    0.2050 C   0  0  0  0  0  0  0  0  0  0  0  0
   -3.4070    0.1384    1.2934 C   0  0  0  0  0  0  0  0  0  0  0  0
   -3.1908    1.2859   -0.8216 C   0  0  0  0  0  0  0  0  0  0  0  0
   -3.8990    1.0464    0.3560 C   0  0  0  0  0  0  0  0  0  0  0  0
    0.8151    0.5383   -1.5573 H   0  0  0  0  0  0  0  0  0  0  0  0
   -0.5307   -2.7924    0.8743 H   0  0  0  0  0  0  0  0  0  0  0  0
    0.2631   -1.4661    1.7190 H   0  0  0  0  0  0  0  0  0  0  0  0
    3.1805   -0.0168   -0.9583 H   0  0  0  0  0  0  0  0  0  0  0  0
    2.3281   -1.3009   -1.7541 H   0  0  0  0  0  0  0  0  0  0  0  0
    1.5419   -3.4029   -0.2394 H   0  0  0  0  0  0  0  0  0  0  0  0
    1.8227   -3.2589    1.4824 H   0  0  0  0  0  0  0  0  0  0  0  0
    2.9034   -1.1083    1.2373 H   0  0  0  0  0  0  0  0  0  0  0  0
    3.6254   -2.2163    0.0844 H   0  0  0  0  0  0  0  0  0  0  0  0
    0.4487   -2.5071   -1.9263 H   0  0  0  0  0  0  0  0  0  0  0  0
   -1.2707   -2.5410   -1.5506 H   0  0  0  0  0  0  0  0  0  0  0  0
   -0.5983   -1.2497   -2.5509 H   0  0  0  0  0  0  0  0  0  0  0  0
    0.2321    1.6417    0.5995 H   0  0  0  0  0  0  0  0  0  0  0  0
    1.3037    0.5668    1.4706 H   0  0  0  0  0  0  0  0  0  0  0  0
   -1.8787   -1.2277    1.8145 H   0  0  0  0  0  0  0  0  0  0  0  0
   -1.4574    0.8253   -1.9844 H   0  0  0  0  0  0  0  0  0  0  0  0
   -3.9600   -0.0485    2.2094 H   0  0  0  0  0  0  0  0  0  0  0  0
   -3.5737    1.9939   -1.5508 H   0  0  0  0  0  0  0  0  0  0  0  0
   -4.8337    1.5670    0.5429 H   0  0  0  0  0  0  0  0  0  0  0  0
    3.9147    2.5639    1.0509 H   0  0  0  0  0  0  0  0  0  0  0  0
  1 14  1  0  0  0  0
  1 37  1  0  0  0  0
  2 14  2  0  0  0  0
  3  4  1  0  0  0  0
  3  5  1  0  0  0  0
  3  9  1  0  0  0  0
  3 10  1  0  0  0  0
  4  6  1  0  0  0  0
  4 11  1  0  0  0  0
  4 18  1  0  0  0  0
  5  7  1  0  0  0  0
  5 19  1  0  0  0  0
  5 20  1  0  0  0  0
  6  8  1  0  0  0  0
  6 21  1  0  0  0  0
  6 22  1  0  0  0  0
  7  8  1  0  0  0  0
  7 23  1  0  0  0  0
  7 24  1  0  0  0  0
  8 25  1  0  0  0  0
  8 26  1  0  0  0  0
  9 12  2  0  0  0  0
  9 13  1  0  0  0  0
 10 27  1  0  0  0  0
 10 28  1  0  0  0  0
 10 29  1  0  0  0  0
 11 14  1  0  0  0  0
 11 30  1  0  0  0  0
 11 31  1  0  0  0  0
 12 15  1  0  0  0  0
 12 32  1  0  0  0  0
 13 16  2  0  0  0  0
 13 33  1  0  0  0  0
 15 17  2  0  0  0  0
 15 34  1  0  0  0  0
 16 17  1  0  0  0  0
 16 35  1  0  0  0  0
 17 36  1  0  0  0  0
M  END
> <PUBCHEM_COMPOUND_CID>
583034

> <PUBCHEM_CONFORMER_RMSD>
0.6

> <PUBCHEM_CONFORMER_DIVERSEORDER>
2
28
8
3
26
1
22
33
13
32
21
19
15
6
24
31
9
4
7
10
23
35
11
12
27
30
25
14
34
17
18
5
29
20
16

> <PUBCHEM_MMFF94_PARTIAL_CHARGES>
17
1 -0.65
11 0.06
12 -0.15
13 -0.15
14 0.66
15 -0.15
16 -0.15
17 -0.15
2 -0.57
3 0.14
32 0.15
33 0.15
34 0.15
35 0.15
36 0.15
37 0.5
9 -0.14

> <PUBCHEM_EFFECTIVE_ROTOR_COUNT>
4.2

> <PUBCHEM_PHARMACOPHORE_FEATURES>
5
1 1 acceptor
1 2 acceptor
3 1 2 14 anion
6 3 4 5 6 7 8 rings
6 9 12 13 15 16 17 rings

> <PUBCHEM_HEAVY_ATOM_COUNT>
17

> <PUBCHEM_ATOM_DEF_STEREO_COUNT>
0

> <PUBCHEM_ATOM_UDEF_STEREO_COUNT>
2

> <PUBCHEM_BOND_DEF_STEREO_COUNT>
0

> <PUBCHEM_BOND_UDEF_STEREO_COUNT>
0

> <PUBCHEM_ISOTOPIC_ATOM_COUNT>
0

> <PUBCHEM_COMPONENT_COUNT>
1

> <PUBCHEM_CACTVS_TAUTO_COUNT>
1

> <PUBCHEM_CONFORMER_ID>
0008E57A00000002

> <PUBCHEM_MMFF94_ENERGY>
49.1652

> <PUBCHEM_FEATURE_SELFOVERLAP>
25.428

> <PUBCHEM_SHAPE_FINGERPRINT>
10366900 7 17988630948153932667
104564 63 17758672635121634836
10608611 8 18201437029990075661
11640471 11 17749401355317788993
12173636 292 17621029868409052196
12633257 1 18270951470812561249
13132413 78 18049160269964227668
13134695 92 18051988196427144126
13140716 1 18409450271399033594
14181834 199 18187377557414610900
15219456 202 18272368693950790937
15490181 7 18340765949012783071
15490181 8 18052546461146095862
15775835 57 18260829254834607661
16945 1 18338518663214877175
17357990 137 17604702395371469939
1813 80 17462553224449631542
18186145 218 18261101980772908965
18981168 100 18130235877794403895
19049666 15 17915466218736597005
19765921 60 18115029593295966169
20510252 161 17471860203699374720
20671657 1 18334858294685463988
20681677 76 18343867732082220957
21501502 16 18263647277166463775
21524375 3 18190461554112288116
21639500 275 18337400434393594143
21731228 192 18268435620488453736
22094290 62 18334580165382547914
22854114 111 18411416232765357081
22892500 29 18200319956156409719
23175994 123 18052254286852307086
23419403 2 16406809868967382742
23558518 356 18265619771099378358
23559900 14 17489295426085327447
25 1 18334846191599479724
2748010 2 18342451513280698151
305870 269 18339931419918980928
3060560 45 17896601871879474247
31174 14 18270387404167713787
3286 77 18271241741871854311
350125 39 18267578018466976994
474 4 18338242574111286008
49207404 50 18200580402904654545
495365 180 18269008620934379237
5939293 188 18120093033262640300
7364860 26 18410576231493297514
74978 22 18334577979397461015
81228 2 17327744989769202066

> <PUBCHEM_SHAPE_MULTIPOLES>
338.11
5.62
2.76
1.31
3.61
0.65
0.13
2.22
-1.1
-2.95
-0.13
0.33
-0.19
0.29

> <PUBCHEM_SHAPE_SELFOVERLAP>
705.17

> <PUBCHEM_SHAPE_VOLUME>
190.2

> <PUBCHEM_COORDINATE_TYPE>
2
5
10

$$$$

