583107
  -OEChem-06241222443D

 23 24  0     1  0  0  0  0  0999 V2000
   -1.4641   -0.4624   -0.7602 O   0  0  0  0  0  0  0  0  0  0  0  0
   -3.3061   -1.5175    0.1298 O   0  0  0  0  0  0  0  0  0  0  0  0
   -0.6540    0.6802   -0.4046 C   0  0  1  0  0  0  0  0  0  0  0  0
    0.7415    0.2141   -0.1597 C   0  0  0  0  0  0  0  0  0  0  0  0
   -0.7035    1.6972   -1.5371 C   0  0  0  0  0  0  0  0  0  0  0  0
   -1.3238    1.1630    0.8363 C   0  0  0  0  0  0  0  0  0  0  0  0
   -2.3650    0.4071    1.1697 C   0  0  0  0  0  0  0  0  0  0  0  0
    1.6909    1.0959    0.3567 C   0  0  0  0  0  0  0  0  0  0  0  0
    1.0972   -1.1036   -0.4475 C   0  0  0  0  0  0  0  0  0  0  0  0
   -2.4633   -0.6375    0.1525 C   0  0  0  0  0  0  0  0  0  0  0  0
    2.9961    0.6602    0.5852 C   0  0  0  0  0  0  0  0  0  0  0  0
    2.4024   -1.5394   -0.2187 C   0  0  0  0  0  0  0  0  0  0  0  0
    3.3518   -0.6575    0.2976 C   0  0  0  0  0  0  0  0  0  0  0  0
   -0.1600    2.6185   -1.2999 H   0  0  0  0  0  0  0  0  0  0  0  0
   -0.2784    1.2796   -2.4581 H   0  0  0  0  0  0  0  0  0  0  0  0
   -1.7390    1.9691   -1.7762 H   0  0  0  0  0  0  0  0  0  0  0  0
   -1.0139    2.0316    1.4016 H   0  0  0  0  0  0  0  0  0  0  0  0
   -3.0272    0.5252    2.0092 H   0  0  0  0  0  0  0  0  0  0  0  0
    1.4364    2.1276    0.5849 H   0  0  0  0  0  0  0  0  0  0  0  0
    0.3971   -1.8243   -0.8588 H   0  0  0  0  0  0  0  0  0  0  0  0
    3.7357    1.3470    0.9864 H   0  0  0  0  0  0  0  0  0  0  0  0
    2.6807   -2.5647   -0.4445 H   0  0  0  0  0  0  0  0  0  0  0  0
    4.3683   -0.9966    0.4749 H   0  0  0  0  0  0  0  0  0  0  0  0
  1  3  1  0  0  0  0
  1 10  1  0  0  0  0
  2 10  2  0  0  0  0
  3  4  1  0  0  0  0
  3  5  1  0  0  0  0
  3  6  1  0  0  0  0
  4  8  2  0  0  0  0
  4  9  1  0  0  0  0
  5 14  1  0  0  0  0
  5 15  1  0  0  0  0
  5 16  1  0  0  0  0
  6  7  2  0  0  0  0
  6 17  1  0  0  0  0
  7 10  1  0  0  0  0
  7 18  1  0  0  0  0
  8 11  1  0  0  0  0
  8 19  1  0  0  0  0
  9 12  2  0  0  0  0
  9 20  1  0  0  0  0
 11 13  2  0  0  0  0
 11 21  1  0  0  0  0
 12 13  1  0  0  0  0
 12 22  1  0  0  0  0
 13 23  1  0  0  0  0
M  END
> <PUBCHEM_COMPOUND_CID>
583107

> <PUBCHEM_CONFORMER_RMSD>
0.4

> <PUBCHEM_CONFORMER_DIVERSEORDER>
2
3
1
4

> <PUBCHEM_MMFF94_PARTIAL_CHARGES>
19
1 -0.43
10 0.71
11 -0.15
12 -0.15
13 -0.15
17 0.15
18 0.15
19 0.15
2 -0.57
20 0.15
21 0.15
22 0.15
23 0.15
3 0.56
4 -0.14
6 -0.29
7 -0.14
8 -0.15
9 -0.15

> <PUBCHEM_EFFECTIVE_ROTOR_COUNT>
1.4

> <PUBCHEM_PHARMACOPHORE_FEATURES>
3
1 2 acceptor
5 1 3 6 7 10 rings
6 4 8 9 11 12 13 rings

> <PUBCHEM_HEAVY_ATOM_COUNT>
13

> <PUBCHEM_ATOM_DEF_STEREO_COUNT>
0

> <PUBCHEM_ATOM_UDEF_STEREO_COUNT>
1

> <PUBCHEM_BOND_DEF_STEREO_COUNT>
0

> <PUBCHEM_BOND_UDEF_STEREO_COUNT>
0

> <PUBCHEM_ISOTOPIC_ATOM_COUNT>
0

> <PUBCHEM_COMPONENT_COUNT>
1

> <PUBCHEM_CACTVS_TAUTO_COUNT>
1

> <PUBCHEM_CONFORMER_ID>
0008E5C300000002

> <PUBCHEM_MMFF94_ENERGY>
29.724

> <PUBCHEM_FEATURE_SELFOVERLAP>
15.223

> <PUBCHEM_SHAPE_FINGERPRINT>
11031198 65 9079118903167110712
11769659 78 18409733949741465659
12138202 97 17558005096994298629
12251169 10 18188198905358867553
12382932 28 18041276676945239218
12423570 1 7941217925792117773
12696612 119 18260826012287208512
12932764 1 18129658750470449314
13024252 1 15625933309275003629
13764800 53 15141503862080930499
15076042 46 17386559305426468513
15501101 241 18410290272570853200
16945 1 18189054213588453700
17844478 74 18343016722550499220
200 152 17822874038153365557
20281407 28 18272929457512637866
20361792 2 17561072597186522901
20711985 344 17202775932654549765
21524375 3 7925643184765475145
22445834 79 18187362146792631274
2748010 2 18191316068442740670
276578 36 4750888038820939886
305870 269 6049900493832504341
369184 2 18113903796494731545
5084963 1 18413394237146288232
81228 2 17488745717294975589

> <PUBCHEM_SHAPE_MULTIPOLES>
255.8
4.96
1.62
1.07
0.94
0.07
0.13
1.69
-1.17
-0.15
0.27
-0.4
-0.4
0.25

> <PUBCHEM_SHAPE_SELFOVERLAP>
556.327

> <PUBCHEM_SHAPE_VOLUME>
141.2

> <PUBCHEM_COORDINATE_TYPE>
2
5
10

$$$$

