854086
  -OEChem-06241222472D

 32 32  0     1  0  0  0  0  0999 V2000
    2.0000   -0.4035    0.0000 S   0  0  0  0  0  0  0  0  0  0  0  0
    6.6511   -0.4119    0.0000 O   0  0  0  0  0  0  0  0  0  0  0  0
    4.9569   -0.7720    0.0000 O   0  0  0  0  0  0  0  0  0  0  0  0
    3.7320    0.5965    0.0000 N   0  0  3  0  0  0  0  0  0  0  0  0
    2.8660   -1.9035    0.0000 N   0  0  0  0  0  0  0  0  0  0  0  0
    6.9784    2.2135    0.0000 N   0  0  0  0  0  0  0  0  0  0  0  0
    3.2320    2.1353    0.0000 C   0  0  0  0  0  0  0  0  0  0  0  0
    2.9230    1.1843    0.0000 C   0  0  0  0  0  0  0  0  0  0  0  0
    4.2320    2.1353    0.0000 C   0  0  0  0  0  0  0  0  0  0  0  0
    4.5411    1.1843    0.0000 C   0  0  0  0  0  0  0  0  0  0  0  0
    3.7320   -0.4035    0.0000 C   0  0  0  0  0  0  0  0  0  0  0  0
    5.4921    0.8753    0.0000 C   0  0  0  0  0  0  0  0  0  0  0  0
    2.8660   -0.9035    0.0000 C   0  0  0  0  0  0  0  0  0  0  0  0
    5.7000   -0.1029    0.0000 C   0  0  0  0  0  0  0  0  0  0  0  0
    6.2353    1.5444    0.0000 C   0  0  0  0  0  0  0  0  0  0  0  0
    6.8590   -1.3901    0.0000 C   0  0  0  0  0  0  0  0  0  0  0  0
    7.8101   -1.6991    0.0000 C   0  0  0  0  0  0  0  0  0  0  0  0
    3.2969    2.7519    0.0000 H   0  0  0  0  0  0  0  0  0  0  0  0
    2.6256    2.2642    0.0000 H   0  0  0  0  0  0  0  0  0  0  0  0
    2.3566    1.4364    0.0000 H   0  0  0  0  0  0  0  0  0  0  0  0
    2.6130    0.6473    0.0000 H   0  0  0  0  0  0  0  0  0  0  0  0
    4.8385    2.2642    0.0000 H   0  0  0  0  0  0  0  0  0  0  0  0
    4.1672    2.7519    0.0000 H   0  0  0  0  0  0  0  0  0  0  0  0
    3.9441   -0.9861    0.0000 H   0  0  0  0  0  0  0  0  0  0  0  0
    4.3426   -0.2959    0.0000 H   0  0  0  0  0  0  0  0  0  0  0  0
    2.3291   -2.2135    0.0000 H   0  0  0  0  0  0  0  0  0  0  0  0
    3.4030   -2.2135    0.0000 H   0  0  0  0  0  0  0  0  0  0  0  0
    6.2394   -1.4117    0.0000 H   0  0  0  0  0  0  0  0  0  0  0  0
    6.7727   -2.0040    0.0000 H   0  0  0  0  0  0  0  0  0  0  0  0
    7.6185   -2.2887    0.0000 H   0  0  0  0  0  0  0  0  0  0  0  0
    8.3997   -1.8907    0.0000 H   0  0  0  0  0  0  0  0  0  0  0  0
    8.0016   -1.1094    0.0000 H   0  0  0  0  0  0  0  0  0  0  0  0
  1 13  2  0  0  0  0
  2 14  1  0  0  0  0
  2 16  1  0  0  0  0
  3 14  2  0  0  0  0
  4  8  1  0  0  0  0
  4 10  1  0  0  0  0
  4 11  1  0  0  0  0
  5 13  1  0  0  0  0
  5 26  1  0  0  0  0
  5 27  1  0  0  0  0
  6 15  3  0  0  0  0
  7  8  1  0  0  0  0
  7  9  1  0  0  0  0
  7 18  1  0  0  0  0
  7 19  1  0  0  0  0
  8 20  1  0  0  0  0
  8 21  1  0  0  0  0
  9 10  1  0  0  0  0
  9 22  1  0  0  0  0
  9 23  1  0  0  0  0
 10 12  2  0  0  0  0
 11 13  1  0  0  0  0
 11 24  1  0  0  0  0
 11 25  1  0  0  0  0
 12 14  1  0  0  0  0
 12 15  1  0  0  0  0
 16 17  1  0  0  0  0
 16 28  1  0  0  0  0
 16 29  1  0  0  0  0
 17 30  1  0  0  0  0
 17 31  1  0  0  0  0
 17 32  1  0  0  0  0
M  END
> <PUBCHEM_COMPOUND_CID>
854086

> <PUBCHEM_COMPOUND_CANONICALIZED>
1

> <PUBCHEM_CACTVS_COMPLEXITY>
408

> <PUBCHEM_CACTVS_HBOND_ACCEPTOR>
5

> <PUBCHEM_CACTVS_HBOND_DONOR>
1

> <PUBCHEM_CACTVS_ROTATABLE_BOND>
5

> <PUBCHEM_CACTVS_SUBSKEYS>
AAADccBzMABAAAAAAAAAAAAAAAAAAWAAAAAAAAAAAAAAAAAAAAAAHgQQAAAADAjhwAYCCANABACcBgTQSAAgAAAgAAEACAEIAEgAxAAAoAAWEAAAkACIIUIAAAAAAAAAAAAAAAAAAAAAAAAAAAAAAAAAAA==

> <PUBCHEM_IUPAC_OPENEYE_NAME>
ethyl (2Z)-2-[1-(2-amino-2-thioxo-ethyl)pyrrolidin-2-ylidene]-2-cyano-acetate

> <PUBCHEM_IUPAC_CAS_NAME>
(2Z)-2-[1-(2-amino-2-sulfanylideneethyl)-2-pyrrolidinylidene]-2-cyanoacetic acid ethyl ester

> <PUBCHEM_IUPAC_NAME>
ethyl (2Z)-2-[1-(2-amino-2-sulfanylideneethyl)pyrrolidin-2-ylidene]-2-cyanoacetate

> <PUBCHEM_IUPAC_SYSTEMATIC_NAME>
ethyl (2Z)-2-[1-(2-azanyl-2-sulfanylidene-ethyl)pyrrolidin-2-ylidene]-2-cyano-ethanoate

> <PUBCHEM_IUPAC_TRADITIONAL_NAME>
(2Z)-2-[1-(2-amino-2-thioxo-ethyl)pyrrolidin-2-ylidene]-2-cyano-acetic acid ethyl ester

> <PUBCHEM_IUPAC_INCHI>
InChI=1S/C11H15N3O2S/c1-2-16-11(15)8(6-12)9-4-3-5-14(9)7-10(13)17/h2-5,7H2,1H3,(H2,13,17)/b9-8-

> <PUBCHEM_IUPAC_INCHIKEY>
MEMPWKDBMLRADF-HJWRWDBZSA-N

> <PUBCHEM_XLOGP3_AA>
0.7

> <PUBCHEM_EXACT_MASS>
253.088498

> <PUBCHEM_MOLECULAR_FORMULA>
C11H15N3O2S

> <PUBCHEM_MOLECULAR_WEIGHT>
253.3207

> <PUBCHEM_OPENEYE_CAN_SMILES>
CCOC(=O)C(=C1CCCN1CC(=S)N)C#N

> <PUBCHEM_OPENEYE_ISO_SMILES>
CCOC(=O)/C(=C\1/CCCN1CC(=S)N)/C#N

> <PUBCHEM_CACTVS_TPSA>
111

> <PUBCHEM_MONOISOTOPIC_WEIGHT>
253.088498

> <PUBCHEM_TOTAL_CHARGE>
0

> <PUBCHEM_HEAVY_ATOM_COUNT>
17

> <PUBCHEM_ATOM_DEF_STEREO_COUNT>
0

> <PUBCHEM_ATOM_UDEF_STEREO_COUNT>
0

> <PUBCHEM_BOND_DEF_STEREO_COUNT>
1

> <PUBCHEM_BOND_UDEF_STEREO_COUNT>
0

> <PUBCHEM_ISOTOPIC_ATOM_COUNT>
0

> <PUBCHEM_COMPONENT_COUNT>
1

> <PUBCHEM_CACTVS_TAUTO_COUNT>
3

> <PUBCHEM_COORDINATE_TYPE>
1
5
255

$$$$

