17396141
  -OEChem-06241222543D

 42 44  0     1  0  0  0  0  0999 V2000
    2.0174   -1.3339    1.6498 S   0  0  0  0  0  0  0  0  0  0  0  0
   -2.4801   -0.8327   -2.3469 F   0  0  0  0  0  0  0  0  0  0  0  0
   -3.6482    2.9873    0.1892 F   0  0  0  0  0  0  0  0  0  0  0  0
    0.4394   -2.2121   -1.2479 O   0  0  0  0  0  0  0  0  0  0  0  0
   -0.8992   -2.6807    0.5935 N   0  0  0  0  0  0  0  0  0  0  0  0
    3.0514    0.5060   -0.1447 N   0  0  0  0  0  0  0  0  0  0  0  0
    4.2650   -1.3038    0.0546 N   0  0  0  0  0  0  0  0  0  0  0  0
    4.8759   -0.4681   -0.8589 N   0  0  0  0  0  0  0  0  0  0  0  0
   -2.1792   -2.4557   -0.0391 C   0  0  2  0  0  0  0  0  0  0  0  0
   -2.5718   -0.9952    0.0195 C   0  0  0  0  0  0  0  0  0  0  0  0
   -3.2437   -3.3715    0.5616 C   0  0  0  0  0  0  0  0  0  0  0  0
   -2.7020   -0.2573   -1.1570 C   0  0  0  0  0  0  0  0  0  0  0  0
   -2.8052   -0.3879    1.2533 C   0  0  0  0  0  0  0  0  0  0  0  0
    0.3089   -2.5386   -0.0693 C   0  0  0  0  0  0  0  0  0  0  0  0
    1.5006   -2.8478    0.8058 C   0  0  0  0  0  0  0  0  0  0  0  0
   -3.0656    1.0881   -1.0997 C   0  0  0  0  0  0  0  0  0  0  0  0
   -3.1687    0.9575    1.3105 C   0  0  0  0  0  0  0  0  0  0  0  0
    2.0513    1.4642    0.0015 C   0  0  0  0  0  0  0  0  0  0  0  0
   -3.2989    1.6955    0.1341 C   0  0  0  0  0  0  0  0  0  0  0  0
    3.1736   -0.7025    0.4714 C   0  0  0  0  0  0  0  0  0  0  0  0
    1.2879    1.8489   -1.1008 C   0  0  0  0  0  0  0  0  0  0  0  0
    1.8129    2.0391    1.2498 C   0  0  0  0  0  0  0  0  0  0  0  0
    4.1335    0.6108   -0.9648 C   0  0  0  0  0  0  0  0  0  0  0  0
    0.2861    2.8084   -0.9547 C   0  0  0  0  0  0  0  0  0  0  0  0
    0.8112    2.9986    1.3957 C   0  0  0  0  0  0  0  0  0  0  0  0
    0.0476    3.3832    0.2936 C   0  0  0  0  0  0  0  0  0  0  0  0
   -2.0679   -2.7506   -1.0903 H   0  0  0  0  0  0  0  0  0  0  0  0
   -0.8910   -2.8835    1.5892 H   0  0  0  0  0  0  0  0  0  0  0  0
   -3.3718   -3.2061    1.6371 H   0  0  0  0  0  0  0  0  0  0  0  0
   -4.2150   -3.2164    0.0791 H   0  0  0  0  0  0  0  0  0  0  0  0
   -2.9639   -4.4228    0.4295 H   0  0  0  0  0  0  0  0  0  0  0  0
   -2.7023   -0.9440    2.1811 H   0  0  0  0  0  0  0  0  0  0  0  0
    1.2298   -3.5963    1.5576 H   0  0  0  0  0  0  0  0  0  0  0  0
    2.3022   -3.2761    0.1960 H   0  0  0  0  0  0  0  0  0  0  0  0
   -3.1659    1.6630   -2.0154 H   0  0  0  0  0  0  0  0  0  0  0  0
   -3.3483    1.4317    2.2709 H   0  0  0  0  0  0  0  0  0  0  0  0
    1.4550    1.4073   -2.0803 H   0  0  0  0  0  0  0  0  0  0  0  0
    2.4073    1.7683    2.1188 H   0  0  0  0  0  0  0  0  0  0  0  0
    4.3354    1.4642   -1.5978 H   0  0  0  0  0  0  0  0  0  0  0  0
   -0.3095    3.1069   -1.8125 H   0  0  0  0  0  0  0  0  0  0  0  0
    0.6274    3.4489    2.3669 H   0  0  0  0  0  0  0  0  0  0  0  0
   -0.7326    4.1301    0.4074 H   0  0  0  0  0  0  0  0  0  0  0  0
  1 15  1  0  0  0  0
  1 20  1  0  0  0  0
  2 12  1  0  0  0  0
  3 19  1  0  0  0  0
  4 14  2  0  0  0  0
  5  9  1  0  0  0  0
  5 14  1  0  0  0  0
  5 28  1  0  0  0  0
  6 18  1  0  0  0  0
  6 20  1  0  0  0  0
  6 23  1  0  0  0  0
  7  8  1  0  0  0  0
  7 20  2  0  0  0  0
  8 23  2  0  0  0  0
  9 10  1  0  0  0  0
  9 11  1  0  0  0  0
  9 27  1  0  0  0  0
 10 12  2  0  0  0  0
 10 13  1  0  0  0  0
 11 29  1  0  0  0  0
 11 30  1  0  0  0  0
 11 31  1  0  0  0  0
 12 16  1  0  0  0  0
 13 17  2  0  0  0  0
 13 32  1  0  0  0  0
 14 15  1  0  0  0  0
 15 33  1  0  0  0  0
 15 34  1  0  0  0  0
 16 19  2  0  0  0  0
 16 35  1  0  0  0  0
 17 19  1  0  0  0  0
 17 36  1  0  0  0  0
 18 21  2  0  0  0  0
 18 22  1  0  0  0  0
 21 24  1  0  0  0  0
 21 37  1  0  0  0  0
 22 25  2  0  0  0  0
 22 38  1  0  0  0  0
 23 39  1  0  0  0  0
 24 26  2  0  0  0  0
 24 40  1  0  0  0  0
 25 26  1  0  0  0  0
 25 41  1  0  0  0  0
 26 42  1  0  0  0  0
M  END
> <PUBCHEM_COMPOUND_CID>
17396141

> <PUBCHEM_CONFORMER_RMSD>
1.4

> <PUBCHEM_CONFORMER_DIVERSEORDER>
1
57
15
29
44
27
45
23
42
3
12
43
9
5
70
40
24
17
36
31
61
69
59
55
48
63
14
73
50
21
46
38
8
7
71
34
4
6
51
56
26
19
32
30
52
18
62
33
22
11
10
68
28
16
58
53
2
74
41
67
25
60
65
54
39
47
35
72
13
37
66
64
49
20

> <PUBCHEM_MMFF94_PARTIAL_CHARGES>
35
1 -0.29
10 -0.14
12 0.19
13 -0.15
14 0.57
15 0.29
16 -0.15
17 -0.15
18 -0.02
19 0.19
2 -0.19
20 0.24
21 -0.15
22 -0.15
23 0.04
24 -0.15
25 -0.15
26 -0.15
28 0.37
3 -0.19
32 0.15
35 0.15
36 0.15
37 0.15
38 0.15
39 0.15
4 -0.57
40 0.15
41 0.15
42 0.15
5 -0.73
6 0.33
7 -0.34
8 -0.34
9 0.44

> <PUBCHEM_EFFECTIVE_ROTOR_COUNT>
7

> <PUBCHEM_PHARMACOPHORE_FEATURES>
7
1 4 acceptor
1 5 donor
3 6 7 20 cation
3 6 8 23 cation
5 6 7 8 20 23 rings
6 10 12 13 16 17 19 rings
6 18 21 22 24 25 26 rings

> <PUBCHEM_HEAVY_ATOM_COUNT>
26

> <PUBCHEM_ATOM_DEF_STEREO_COUNT>
0

> <PUBCHEM_ATOM_UDEF_STEREO_COUNT>
1

> <PUBCHEM_BOND_DEF_STEREO_COUNT>
0

> <PUBCHEM_BOND_UDEF_STEREO_COUNT>
0

> <PUBCHEM_ISOTOPIC_ATOM_COUNT>
0

> <PUBCHEM_COMPONENT_COUNT>
1

> <PUBCHEM_CACTVS_TAUTO_COUNT>
2

> <PUBCHEM_CONFORMER_ID>
010971AD00000001

> <PUBCHEM_MMFF94_ENERGY>
67.422

> <PUBCHEM_FEATURE_SELFOVERLAP>
38.023

> <PUBCHEM_SHAPE_FINGERPRINT>
10366900 7 17702663229077025763
104564 63 18193839464639803840
10675989 125 17261045827074812716
107951 10 16987433312385862577
11513181 2 17609781159965950303
12156800 1 16034832796972441089
12539773 59 17894352185548127705
12553582 1 18338525247494778560
12596599 1 17603595131317110028
12633257 1 17987248896012727234
12788726 201 18044937024480403104
128993 33 18198054772961035153
13122387 1 18411423873380308088
13140716 1 18410299098987090120
14251751 93 18341609283073806970
14765038 42 18189875609305482392
19930381 70 17617941327293129619
20600515 1 18337096943589202148
20775438 99 16887838144329262351
221357 26 18265608788983962310
238 59 18121806948704927535
2818148 4 17981300336374416553
350125 39 18268138769597511971
35225 105 15577553792409232649
445580 8 18190747633304424640
7226269 152 18412267238344951074

> <PUBCHEM_SHAPE_MULTIPOLES>
498.58
7.37
4.55
1.52
2.55
0.32
-0.14
-1.04
-0.87
-1.49
0.81
-0.23
0.18
-0.09

> <PUBCHEM_SHAPE_SELFOVERLAP>
1058.455

> <PUBCHEM_SHAPE_VOLUME>
281.9

> <PUBCHEM_COORDINATE_TYPE>
2
5
10

$$$$

