17395329
  -OEChem-06241222493D

 44 46  0     1  0  0  0  0  0999 V2000
   -1.0508   -0.5928    1.4410 F   0  0  0  0  0  0  0  0  0  0  0  0
   -5.8722   -1.8815   -0.7970 F   0  0  0  0  0  0  0  0  0  0  0  0
    1.8888    0.0317    1.2149 O   0  0  0  0  0  0  0  0  0  0  0  0
   -0.5824    0.3774   -2.0621 O   0  0  0  0  0  0  0  0  0  0  0  0
    0.2004    2.8658    1.7321 O   0  0  0  0  0  0  0  0  0  0  0  0
    3.3568    0.0029   -0.5868 N   0  0  0  0  0  0  0  0  0  0  0  0
    0.1904    1.6516   -0.2670 N   0  0  0  0  0  0  0  0  0  0  0  0
   -1.7472    2.0152    0.7732 N   0  0  0  0  0  0  0  0  0  0  0  0
    5.6075   -0.8709   -0.6046 C   0  0  0  0  0  0  0  0  0  0  0  0
    6.5404   -0.0383    0.2251 C   0  0  0  0  0  0  0  0  0  0  0  0
    6.7344   -1.5239    0.1406 C   0  0  0  0  0  0  0  0  0  0  0  0
    4.1980   -1.0818   -0.1341 C   0  0  2  0  0  0  0  0  0  0  0  0
    3.6397   -2.4165   -0.6106 C   0  0  0  0  0  0  0  0  0  0  0  0
   -2.1463    1.2671   -0.4080 C   0  0  1  0  0  0  0  0  0  0  0  0
    2.2659    0.4708    0.1313 C   0  0  0  0  0  0  0  0  0  0  0  0
    1.6096    1.6468   -0.5600 C   0  0  0  0  0  0  0  0  0  0  0  0
   -0.7658    1.0232   -1.0372 C   0  0  0  0  0  0  0  0  0  0  0  0
   -2.8316   -0.0378   -0.0275 C   0  0  0  0  0  0  0  0  0  0  0  0
   -0.3728    2.2517    0.8417 C   0  0  0  0  0  0  0  0  0  0  0  0
   -2.9220    2.1972   -1.3497 C   0  0  0  0  0  0  0  0  0  0  0  0
   -2.2324   -0.9020    0.8887 C   0  0  0  0  0  0  0  0  0  0  0  0
   -4.0613   -0.3684   -0.5967 C   0  0  0  0  0  0  0  0  0  0  0  0
   -4.6919   -1.5632   -0.2497 C   0  0  0  0  0  0  0  0  0  0  0  0
   -2.8628   -2.0970    1.2358 C   0  0  0  0  0  0  0  0  0  0  0  0
   -4.0925   -2.4276    0.6666 C   0  0  0  0  0  0  0  0  0  0  0  0
    5.6948   -0.8087   -1.6832 H   0  0  0  0  0  0  0  0  0  0  0  0
    7.2495    0.5934   -0.2959 H   0  0  0  0  0  0  0  0  0  0  0  0
    6.1827    0.3706    1.1621 H   0  0  0  0  0  0  0  0  0  0  0  0
    6.5069   -2.1116    1.0214 H   0  0  0  0  0  0  0  0  0  0  0  0
    7.5744   -1.8906   -0.4365 H   0  0  0  0  0  0  0  0  0  0  0  0
    4.1706   -1.0864    0.9633 H   0  0  0  0  0  0  0  0  0  0  0  0
    2.6173   -2.5691   -0.2483 H   0  0  0  0  0  0  0  0  0  0  0  0
    4.2549   -3.2494   -0.2544 H   0  0  0  0  0  0  0  0  0  0  0  0
    3.6139   -2.4662   -1.7052 H   0  0  0  0  0  0  0  0  0  0  0  0
    3.5730    0.4245   -1.4856 H   0  0  0  0  0  0  0  0  0  0  0  0
    2.0672    2.5658   -0.1799 H   0  0  0  0  0  0  0  0  0  0  0  0
    1.7463    1.5872   -1.6444 H   0  0  0  0  0  0  0  0  0  0  0  0
   -2.4010    2.3425    1.4779 H   0  0  0  0  0  0  0  0  0  0  0  0
   -3.8716    2.5172   -0.9051 H   0  0  0  0  0  0  0  0  0  0  0  0
   -3.1292    1.7217   -2.3153 H   0  0  0  0  0  0  0  0  0  0  0  0
   -2.3503    3.1087   -1.5666 H   0  0  0  0  0  0  0  0  0  0  0  0
   -4.5648    0.2712   -1.3133 H   0  0  0  0  0  0  0  0  0  0  0  0
   -2.3957   -2.7697    1.9491 H   0  0  0  0  0  0  0  0  0  0  0  0
   -4.5835   -3.3579    0.9363 H   0  0  0  0  0  0  0  0  0  0  0  0
  1 21  1  0  0  0  0
  2 23  1  0  0  0  0
  3 15  2  0  0  0  0
  4 17  2  0  0  0  0
  5 19  2  0  0  0  0
  6 12  1  0  0  0  0
  6 15  1  0  0  0  0
  6 35  1  0  0  0  0
  7 16  1  0  0  0  0
  7 17  1  0  0  0  0
  7 19  1  0  0  0  0
  8 14  1  0  0  0  0
  8 19  1  0  0  0  0
  8 38  1  0  0  0  0
  9 10  1  0  0  0  0
  9 11  1  0  0  0  0
  9 12  1  0  0  0  0
  9 26  1  0  0  0  0
 10 11  1  0  0  0  0
 10 27  1  0  0  0  0
 10 28  1  0  0  0  0
 11 29  1  0  0  0  0
 11 30  1  0  0  0  0
 12 13  1  0  0  0  0
 12 31  1  0  0  0  0
 13 32  1  0  0  0  0
 13 33  1  0  0  0  0
 13 34  1  0  0  0  0
 14 17  1  0  0  0  0
 14 18  1  0  0  0  0
 14 20  1  0  0  0  0
 15 16  1  0  0  0  0
 16 36  1  0  0  0  0
 16 37  1  0  0  0  0
 18 21  2  0  0  0  0
 18 22  1  0  0  0  0
 20 39  1  0  0  0  0
 20 40  1  0  0  0  0
 20 41  1  0  0  0  0
 21 24  1  0  0  0  0
 22 23  2  0  0  0  0
 22 42  1  0  0  0  0
 23 25  1  0  0  0  0
 24 25  2  0  0  0  0
 24 43  1  0  0  0  0
 25 44  1  0  0  0  0
M  END
> <PUBCHEM_COMPOUND_CID>
17395329

> <PUBCHEM_CONFORMER_RMSD>
1

> <PUBCHEM_CONFORMER_DIVERSEORDER>
1
93
40
167
259
242
94
181
160
168
25
126
212
214
142
39
145
61
70
148
124
239
28
220
171
45
129
200
232
63
73
75
11
173
226
6
143
243
58
46
156
49
177
82
105
219
136
153
238
114
112
74
115
90
158
199
123
7
64
163
55
249
159
204
51
174
225
81
101
172
24
102
130
252
31
18
257
215
144
2
72
223
38
79
175
251
125
233
30
92
240
140
133
117
103
29
22
110
250
247
48
86
119
89
104
190
202
98
216
207
59
237
197
113
152
186
162
116
218
228
60
33
234
52
193
111
189
15
127
67
56
41
139
106
165
155
246
253
209
23
32
132
13
208
8
17
170
179
36
146
12
19
196
118
147
191
47
166
255
85
87
183
229
107
151
176
100
203
37
99
222
43
14
68
50
188
91
21
83
53
57
230
184
236
169
97
76
109
26
150
206
131
34
9
195
65
187
192
149
121
231
122
71
134
96
27
157
164
44
227
42
217
128
254
185
244
10
20
3
178
194
211
182
201
261
154
95
108
258
66
4
141
210
198
137
245
62
213
224
80
120
16
205
241
54
84
161
235
78
5
35
135
180
248
138
221
69
88
77
260
256

> <PUBCHEM_MMFF94_PARTIAL_CHARGES>
33
1 -0.19
10 -0.2
11 -0.2
12 0.4
14 0.5
15 0.57
16 0.36
17 0.57
18 -0.14
19 0.69
2 -0.19
21 0.19
22 -0.15
23 0.19
24 -0.15
25 -0.15
26 0.1
27 0.1
28 0.1
29 0.1
3 -0.57
30 0.1
35 0.37
38 0.37
4 -0.57
42 0.15
43 0.15
44 0.15
5 -0.57
6 -0.73
7 -0.42
8 -0.73
9 -0.19

> <PUBCHEM_EFFECTIVE_ROTOR_COUNT>
7.2

> <PUBCHEM_PHARMACOPHORE_FEATURES>
7
1 3 acceptor
1 4 acceptor
1 5 acceptor
1 6 donor
1 8 donor
5 7 8 14 17 19 rings
6 18 21 22 23 24 25 rings

> <PUBCHEM_HEAVY_ATOM_COUNT>
25

> <PUBCHEM_ATOM_DEF_STEREO_COUNT>
0

> <PUBCHEM_ATOM_UDEF_STEREO_COUNT>
2

> <PUBCHEM_BOND_DEF_STEREO_COUNT>
0

> <PUBCHEM_BOND_UDEF_STEREO_COUNT>
0

> <PUBCHEM_ISOTOPIC_ATOM_COUNT>
0

> <PUBCHEM_COMPONENT_COUNT>
1

> <PUBCHEM_CACTVS_TAUTO_COUNT>
4

> <PUBCHEM_CONFORMER_ID>
01096E8100000001

> <PUBCHEM_MMFF94_ENERGY>
51.6216

> <PUBCHEM_FEATURE_SELFOVERLAP>
35.52

> <PUBCHEM_SHAPE_FINGERPRINT>
11315181 36 18410292558284784420
11578080 2 14780651902845726097
12516196 113 18259984855774408922
12596602 18 16443066075851737082
12760667 363 18410571777950016539
12788726 201 17899988419069393720
12892183 10 14924486637492933740
12954195 1 18342185505278097981
13103583 49 17531231851624818683
13402501 40 18411135823020345698
13544653 18 18337664230952643912
13631057 29 18410574011638842202
14211702 104 18266456689270968234
14251740 79 18131630097256556499
14251751 18 18343862199853237462
14790565 3 17331401381333712941
14866123 147 18337948004617813433
14931854 50 18060425737011276287
15352361 1 18411696582508388302
17492 89 17832427501868237687
21307412 95 18200599099409847647
21623969 137 17967532394244311614
22393880 68 17918003784215217436
23402539 116 15123504852729335612
23559900 14 18271250404525998037
2838139 119 9151179714288810034
3004659 81 18060142011687252822
329604 57 18411695474928682110
4280585 95 17775008955791398532
4325135 7 18201997695527038268
437815 12 18333450932829003467
463206 1 18264487291313408463
5104073 3 17970070144458922570
9709674 26 18129660777531606049
9862886 166 18273215287950306970

> <PUBCHEM_SHAPE_MULTIPOLES>
467.39
13.14
2.91
1.32
18.43
0.26
0.05
-10.43
-1.73
-2.21
0.49
-0.63
0.4
0.86

> <PUBCHEM_SHAPE_SELFOVERLAP>
997.632

> <PUBCHEM_SHAPE_VOLUME>
261.4

> <PUBCHEM_COORDINATE_TYPE>
2
5
10

$$$$

