13098
  -OEChem-06261207452D

 20 20  0     0  0  0  0  0  0999 V2000
    4.0000    0.5000    0.0000 S   0  0  0  0  0  0  0  0  0  0  0  0
    5.0000   -0.5000    0.0000 S   0  0  0  0  0  0  0  0  0  0  0  0
    5.0000    2.5000    0.0000 F   0  0  0  0  0  0  0  0  0  0  0  0
    4.0000    1.5000    0.0000 F   0  0  0  0  0  0  0  0  0  0  0  0
    5.7660    2.1428    0.0000 F   0  0  0  0  0  0  0  0  0  0  0  0
    4.0000   -2.5000    0.0000 F   0  0  0  0  0  0  0  0  0  0  0  0
    5.0000   -1.5000    0.0000 F   0  0  0  0  0  0  0  0  0  0  0  0
    3.2339   -2.1427    0.0000 F   0  0  0  0  0  0  0  0  0  0  0  0
    2.0000   -0.5000    0.0000 F   0  0  0  0  0  0  0  0  0  0  0  0
    2.3573   -1.2661    0.0000 F   0  0  0  0  0  0  0  0  0  0  0  0
    3.0000    0.5000    0.0000 F   0  0  0  0  0  0  0  0  0  0  0  0
    7.0000    0.5000    0.0000 F   0  0  0  0  0  0  0  0  0  0  0  0
    6.6428    1.2660    0.0000 F   0  0  0  0  0  0  0  0  0  0  0  0
    6.0000   -0.5000    0.0000 F   0  0  0  0  0  0  0  0  0  0  0  0
    5.0000    0.5000    0.0000 C   0  0  0  0  0  0  0  0  0  0  0  0
    4.0000   -0.5000    0.0000 C   0  0  0  0  0  0  0  0  0  0  0  0
    6.0000    0.5000    0.0000 C   0  0  0  0  0  0  0  0  0  0  0  0
    3.0000   -0.5000    0.0000 C   0  0  0  0  0  0  0  0  0  0  0  0
    4.0000   -1.5000    0.0000 C   0  0  0  0  0  0  0  0  0  0  0  0
    5.0000    1.5000    0.0000 C   0  0  0  0  0  0  0  0  0  0  0  0
  1 15  1  0  0  0  0
  1 16  1  0  0  0  0
  2 15  1  0  0  0  0
  2 16  1  0  0  0  0
  3 20  1  0  0  0  0
  4 20  1  0  0  0  0
  5 20  1  0  0  0  0
  6 19  1  0  0  0  0
  7 19  1  0  0  0  0
  8 19  1  0  0  0  0
  9 18  1  0  0  0  0
 10 18  1  0  0  0  0
 11 18  1  0  0  0  0
 12 17  1  0  0  0  0
 13 17  1  0  0  0  0
 14 17  1  0  0  0  0
 15 17  1  0  0  0  0
 15 20  1  0  0  0  0
 16 18  1  0  0  0  0
 16 19  1  0  0  0  0
M  END
> <PUBCHEM_COMPOUND_CID>
13098

> <PUBCHEM_COMPOUND_CANONICALIZED>
1

> <PUBCHEM_CACTVS_COMPLEXITY>
305

> <PUBCHEM_CACTVS_HBOND_ACCEPTOR>
14

> <PUBCHEM_CACTVS_HBOND_DONOR>
0

> <PUBCHEM_CACTVS_ROTATABLE_BOND>
0

> <PUBCHEM_CACTVS_SUBSKEYS>
AAADcQBgAcBgAAAAAAAAAAAAAABIAAAAAAAAAAAAAAAAAAAAAAAACQQAAAAACAAAQBAAAAAAAAgAAAAAAAAAAQAAABAAAAAAAAAAAAAAAAAAAAAAAAAgAAAAAAAAAAAAAAAAAAAAAAAAAAAAAAAAAAAAAA==

> <PUBCHEM_IUPAC_OPENEYE_NAME>
2,2,4,4-tetrakis(trifluoromethyl)-1,3-dithietane

> <PUBCHEM_IUPAC_CAS_NAME>
2,2,4,4-tetrakis(trifluoromethyl)-1,3-dithietane

> <PUBCHEM_IUPAC_NAME>
2,2,4,4-tetrakis(trifluoromethyl)-1,3-dithietane

> <PUBCHEM_IUPAC_SYSTEMATIC_NAME>
2,2,4,4-tetrakis(trifluoromethyl)-1,3-dithietane

> <PUBCHEM_IUPAC_TRADITIONAL_NAME>
2,2,4,4-tetrakis(trifluoromethyl)-1,3-dithietane

> <PUBCHEM_IUPAC_INCHI>
InChI=1S/C6F12S2/c7-3(8,9)1(4(10,11)12)19-2(20-1,5(13,14)15)6(16,17)18

> <PUBCHEM_IUPAC_INCHIKEY>
QKKBOQYIHOYXKK-UHFFFAOYSA-N

> <PUBCHEM_XLOGP3_AA>
5.7

> <PUBCHEM_EXACT_MASS>
363.924981

> <PUBCHEM_MOLECULAR_FORMULA>
C6F12S2

> <PUBCHEM_MOLECULAR_WEIGHT>
364.175038

> <PUBCHEM_OPENEYE_CAN_SMILES>
C1(SC(S1)(C(F)(F)F)C(F)(F)F)(C(F)(F)F)C(F)(F)F

> <PUBCHEM_OPENEYE_ISO_SMILES>
C1(SC(S1)(C(F)(F)F)C(F)(F)F)(C(F)(F)F)C(F)(F)F

> <PUBCHEM_CACTVS_TPSA>
50.6

> <PUBCHEM_MONOISOTOPIC_WEIGHT>
363.924981

> <PUBCHEM_TOTAL_CHARGE>
0

> <PUBCHEM_HEAVY_ATOM_COUNT>
20

> <PUBCHEM_ATOM_DEF_STEREO_COUNT>
0

> <PUBCHEM_ATOM_UDEF_STEREO_COUNT>
0

> <PUBCHEM_BOND_DEF_STEREO_COUNT>
0

> <PUBCHEM_BOND_UDEF_STEREO_COUNT>
0

> <PUBCHEM_ISOTOPIC_ATOM_COUNT>
0

> <PUBCHEM_COMPONENT_COUNT>
1

> <PUBCHEM_CACTVS_TAUTO_COUNT>
1

> <PUBCHEM_COORDINATE_TYPE>
1
5
255

$$$$

