12995
  -OEChem-06261207383D

 14 13  0     0  0  0  0  0  0999 V2000
   -0.6100    0.4206    0.1598 O   0  0  0  0  0  0  0  0  0  0  0  0
    2.9445   -0.2864   -0.1140 O   0  0  0  0  0  0  0  0  0  0  0  0
    0.5572   -0.3833    0.0380 C   0  0  0  0  0  0  0  0  0  0  0  0
    1.7759    0.5182   -0.0126 C   0  0  0  0  0  0  0  0  0  0  0  0
   -1.7369   -0.3312    0.1890 C   0  0  0  0  0  0  0  0  0  0  0  0
   -2.9307    0.0621   -0.2602 C   0  0  0  0  0  0  0  0  0  0  0  0
    0.6453   -1.0657    0.8940 H   0  0  0  0  0  0  0  0  0  0  0  0
    0.5113   -0.9939   -0.8734 H   0  0  0  0  0  0  0  0  0  0  0  0
    1.8463    1.1466    0.8813 H   0  0  0  0  0  0  0  0  0  0  0  0
    1.7310    1.1860   -0.8788 H   0  0  0  0  0  0  0  0  0  0  0  0
   -1.6093   -1.3097    0.6333 H   0  0  0  0  0  0  0  0  0  0  0  0
    2.9862   -0.8441    0.6815 H   0  0  0  0  0  0  0  0  0  0  0  0
   -3.7896   -0.5962   -0.1945 H   0  0  0  0  0  0  0  0  0  0  0  0
   -3.0671    1.0441   -0.6991 H   0  0  0  0  0  0  0  0  0  0  0  0
  1  3  1  0  0  0  0
  1  5  1  0  0  0  0
  2  4  1  0  0  0  0
  2 12  1  0  0  0  0
  3  4  1  0  0  0  0
  3  7  1  0  0  0  0
  3  8  1  0  0  0  0
  4  9  1  0  0  0  0
  4 10  1  0  0  0  0
  5  6  2  0  0  0  0
  5 11  1  0  0  0  0
  6 13  1  0  0  0  0
  6 14  1  0  0  0  0
M  END
> <PUBCHEM_COMPOUND_CID>
12995

> <PUBCHEM_CONFORMER_RMSD>
0.4

> <PUBCHEM_CONFORMER_DIVERSEORDER>
3
20
11
17
16
21
2
6
13
19
15
1
18
14
4
8
9
7
10
5
12

> <PUBCHEM_MMFF94_PARTIAL_CHARGES>
10
1 -0.36
11 0.15
12 0.4
13 0.15
14 0.15
2 -0.68
3 0.28
4 0.28
5 -0.07
6 -0.3

> <PUBCHEM_EFFECTIVE_ROTOR_COUNT>
3

> <PUBCHEM_PHARMACOPHORE_FEATURES>
3
1 1 acceptor
1 2 acceptor
1 2 donor

> <PUBCHEM_HEAVY_ATOM_COUNT>
6

> <PUBCHEM_ATOM_DEF_STEREO_COUNT>
0

> <PUBCHEM_ATOM_UDEF_STEREO_COUNT>
0

> <PUBCHEM_BOND_DEF_STEREO_COUNT>
0

> <PUBCHEM_BOND_UDEF_STEREO_COUNT>
0

> <PUBCHEM_ISOTOPIC_ATOM_COUNT>
0

> <PUBCHEM_COMPONENT_COUNT>
1

> <PUBCHEM_CACTVS_TAUTO_COUNT>
1

> <PUBCHEM_CONFORMER_ID>
000032C300000003

> <PUBCHEM_MMFF94_ENERGY>
11.0647

> <PUBCHEM_FEATURE_SELFOVERLAP>
15.223

> <PUBCHEM_SHAPE_FINGERPRINT>
14390081 3 17989492904913733085
16714656 1 18409730651390958271
29004967 10 6411301242809211038
5460574 1 9295291637893725331

> <PUBCHEM_SHAPE_MULTIPOLES>
111.74
4.54
0.71
0.61
0.11
0.01
0
-0.05
-0.42
0.06
0.01
-0.07
0
0.05

> <PUBCHEM_SHAPE_SELFOVERLAP>
194.59

> <PUBCHEM_SHAPE_VOLUME>
74.1

> <PUBCHEM_COORDINATE_TYPE>
2
5
10

$$$$

