13332
  -OEChem-06261209013D

 60 62  0     0  0  0  0  0  0999 V2000
    1.0490    1.8968   -1.4053 O   0  0  0  0  0  0  0  0  0  0  0  0
    2.2070   -1.4571    1.6065 O   0  0  0  0  0  0  0  0  0  0  0  0
   -2.0285    0.2693    1.6818 O   0  0  0  0  0  0  0  0  0  0  0  0
    1.6574    0.1651    0.0190 N   0  0  0  0  0  0  0  0  0  0  0  0
   -0.5575    1.0573    0.0486 N   0  0  0  0  0  0  0  0  0  0  0  0
    3.0263    0.2900   -0.4202 C   0  0  0  0  0  0  0  0  0  0  0  0
   -1.4704    2.0993   -0.3556 C   0  0  0  0  0  0  0  0  0  0  0  0
    3.9337    0.6981    0.7434 C   0  0  0  0  0  0  0  0  0  0  0  0
    3.5027   -1.0123   -1.0679 C   0  0  0  0  0  0  0  0  0  0  0  0
   -2.7406    1.5005   -0.9654 C   0  0  0  0  0  0  0  0  0  0  0  0
   -1.7979    3.0140    0.8270 C   0  0  0  0  0  0  0  0  0  0  0  0
   -0.1003   -1.0409    1.2117 C   0  0  0  0  0  0  0  0  0  0  0  0
    5.3957    0.7833    0.3130 C   0  0  0  0  0  0  0  0  0  0  0  0
    4.9658   -0.9259   -1.4949 C   0  0  0  0  0  0  0  0  0  0  0  0
   -3.7439    2.5844   -1.3507 C   0  0  0  0  0  0  0  0  0  0  0  0
   -2.8037    4.0953    0.4403 C   0  0  0  0  0  0  0  0  0  0  0  0
    5.8679   -0.5153   -0.3345 C   0  0  0  0  0  0  0  0  0  0  0  0
   -4.0674    3.4965   -0.1707 C   0  0  0  0  0  0  0  0  0  0  0  0
    0.7344    1.0886   -0.5246 C   0  0  0  0  0  0  0  0  0  0  0  0
    1.3681   -0.7951    0.9938 C   0  0  0  0  0  0  0  0  0  0  0  0
   -0.9874    0.1610    1.0322 C   0  0  0  0  0  0  0  0  0  0  0  0
   -0.5659   -2.1501    0.2713 C   0  0  0  0  0  0  0  0  0  0  0  0
   -2.0192   -2.5286    0.5402 C   0  0  0  0  0  0  0  0  0  0  0  0
   -2.4911   -3.6175   -0.4248 C   0  0  0  0  0  0  0  0  0  0  0  0
   -3.9362   -4.0253   -0.1392 C   0  0  0  0  0  0  0  0  0  0  0  0
   -4.3980   -5.1312   -1.0748 C   0  0  0  0  0  0  0  0  0  0  0  0
    3.1152    1.0737   -1.1820 H   0  0  0  0  0  0  0  0  0  0  0  0
   -1.0141    2.7288   -1.1289 H   0  0  0  0  0  0  0  0  0  0  0  0
    3.6159    1.6745    1.1310 H   0  0  0  0  0  0  0  0  0  0  0  0
    3.8899    0.0117    1.5922 H   0  0  0  0  0  0  0  0  0  0  0  0
    3.3999   -1.8733   -0.3997 H   0  0  0  0  0  0  0  0  0  0  0  0
    2.8832   -1.2360   -1.9458 H   0  0  0  0  0  0  0  0  0  0  0  0
   -2.4815    0.9141   -1.8561 H   0  0  0  0  0  0  0  0  0  0  0  0
   -3.2437    0.8071   -0.2841 H   0  0  0  0  0  0  0  0  0  0  0  0
   -2.2144    2.4859    1.6875 H   0  0  0  0  0  0  0  0  0  0  0  0
   -0.8776    3.4922    1.1863 H   0  0  0  0  0  0  0  0  0  0  0  0
   -0.2101   -1.3620    2.2564 H   0  0  0  0  0  0  0  0  0  0  0  0
    5.5190    1.6103   -0.3972 H   0  0  0  0  0  0  0  0  0  0  0  0
    6.0244    1.0137    1.1806 H   0  0  0  0  0  0  0  0  0  0  0  0
    5.2926   -1.8935   -1.8923 H   0  0  0  0  0  0  0  0  0  0  0  0
    5.0654   -0.1976   -2.3092 H   0  0  0  0  0  0  0  0  0  0  0  0
   -3.3353    3.1838   -2.1736 H   0  0  0  0  0  0  0  0  0  0  0  0
   -4.6647    2.1205   -1.7221 H   0  0  0  0  0  0  0  0  0  0  0  0
   -3.0657    4.6901    1.3227 H   0  0  0  0  0  0  0  0  0  0  0  0
   -2.3414    4.7819   -0.2796 H   0  0  0  0  0  0  0  0  0  0  0  0
    5.8802   -1.3139    0.4175 H   0  0  0  0  0  0  0  0  0  0  0  0
    6.8970   -0.3965   -0.6916 H   0  0  0  0  0  0  0  0  0  0  0  0
   -4.6064    2.9246    0.5948 H   0  0  0  0  0  0  0  0  0  0  0  0
   -4.7356    4.3008   -0.4985 H   0  0  0  0  0  0  0  0  0  0  0  0
   -0.4587   -1.8338   -0.7748 H   0  0  0  0  0  0  0  0  0  0  0  0
    0.0731   -3.0341    0.3939 H   0  0  0  0  0  0  0  0  0  0  0  0
   -2.6863   -1.6722    0.4061 H   0  0  0  0  0  0  0  0  0  0  0  0
   -2.1282   -2.8749    1.5750 H   0  0  0  0  0  0  0  0  0  0  0  0
   -1.8390   -4.4948   -0.3341 H   0  0  0  0  0  0  0  0  0  0  0  0
   -2.4073   -3.2579   -1.4576 H   0  0  0  0  0  0  0  0  0  0  0  0
   -4.0283   -4.3712    0.8969 H   0  0  0  0  0  0  0  0  0  0  0  0
   -4.5973   -3.1582   -0.2519 H   0  0  0  0  0  0  0  0  0  0  0  0
   -3.7774   -6.0258   -0.9615 H   0  0  0  0  0  0  0  0  0  0  0  0
   -5.4341   -5.4064   -0.8539 H   0  0  0  0  0  0  0  0  0  0  0  0
   -4.3477   -4.8077   -2.1193 H   0  0  0  0  0  0  0  0  0  0  0  0
  1 19  2  0  0  0  0
  2 20  2  0  0  0  0
  3 21  2  0  0  0  0
  4  6  1  0  0  0  0
  4 19  1  0  0  0  0
  4 20  1  0  0  0  0
  5  7  1  0  0  0  0
  5 19  1  0  0  0  0
  5 21  1  0  0  0  0
  6  8  1  0  0  0  0
  6  9  1  0  0  0  0
  6 27  1  0  0  0  0
  7 10  1  0  0  0  0
  7 11  1  0  0  0  0
  7 28  1  0  0  0  0
  8 13  1  0  0  0  0
  8 29  1  0  0  0  0
  8 30  1  0  0  0  0
  9 14  1  0  0  0  0
  9 31  1  0  0  0  0
  9 32  1  0  0  0  0
 10 15  1  0  0  0  0
 10 33  1  0  0  0  0
 10 34  1  0  0  0  0
 11 16  1  0  0  0  0
 11 35  1  0  0  0  0
 11 36  1  0  0  0  0
 12 20  1  0  0  0  0
 12 21  1  0  0  0  0
 12 22  1  0  0  0  0
 12 37  1  0  0  0  0
 13 17  1  0  0  0  0
 13 38  1  0  0  0  0
 13 39  1  0  0  0  0
 14 17  1  0  0  0  0
 14 40  1  0  0  0  0
 14 41  1  0  0  0  0
 15 18  1  0  0  0  0
 15 42  1  0  0  0  0
 15 43  1  0  0  0  0
 16 18  1  0  0  0  0
 16 44  1  0  0  0  0
 16 45  1  0  0  0  0
 17 46  1  0  0  0  0
 17 47  1  0  0  0  0
 18 48  1  0  0  0  0
 18 49  1  0  0  0  0
 22 23  1  0  0  0  0
 22 50  1  0  0  0  0
 22 51  1  0  0  0  0
 23 24  1  0  0  0  0
 23 52  1  0  0  0  0
 23 53  1  0  0  0  0
 24 25  1  0  0  0  0
 24 54  1  0  0  0  0
 24 55  1  0  0  0  0
 25 26  1  0  0  0  0
 25 56  1  0  0  0  0
 25 57  1  0  0  0  0
 26 58  1  0  0  0  0
 26 59  1  0  0  0  0
 26 60  1  0  0  0  0
M  END
> <PUBCHEM_COMPOUND_CID>
13332

> <PUBCHEM_CONFORMER_RMSD>
1

> <PUBCHEM_CONFORMER_DIVERSEORDER>
1
2
5
8
10
6
7
9
4
3

> <PUBCHEM_MMFF94_PARTIAL_CHARGES>
11
1 -0.57
12 0.12
19 0.69
2 -0.57
20 0.57
21 0.57
3 -0.57
4 -0.42
5 -0.42
6 0.3
7 0.3

> <PUBCHEM_EFFECTIVE_ROTOR_COUNT>
9

> <PUBCHEM_PHARMACOPHORE_FEATURES>
9
1 1 acceptor
1 12 anion
1 2 acceptor
1 26 hydrophobe
1 3 acceptor
4 22 23 24 25 hydrophobe
6 4 5 12 19 20 21 rings
6 6 8 9 13 14 17 rings
6 7 10 11 15 16 18 rings

> <PUBCHEM_HEAVY_ATOM_COUNT>
26

> <PUBCHEM_ATOM_DEF_STEREO_COUNT>
0

> <PUBCHEM_ATOM_UDEF_STEREO_COUNT>
0

> <PUBCHEM_BOND_DEF_STEREO_COUNT>
0

> <PUBCHEM_BOND_UDEF_STEREO_COUNT>
0

> <PUBCHEM_ISOTOPIC_ATOM_COUNT>
0

> <PUBCHEM_COMPONENT_COUNT>
1

> <PUBCHEM_CACTVS_TAUTO_COUNT>
1

> <PUBCHEM_CONFORMER_ID>
0000341400000001

> <PUBCHEM_MMFF94_ENERGY>
40.4945

> <PUBCHEM_FEATURE_SELFOVERLAP>
45.669

> <PUBCHEM_SHAPE_FINGERPRINT>
10411042 1 18122345670832649939
11045515 52 18121780534851560475
11115154 58 18123760760237245719
11386260 185 17689457996803971887
11578080 2 18042126453468374393
12788726 201 18127408956406666754
12969540 114 18127698338218027956
13004483 165 18118689807681608814
13134695 92 17690843363398776327
13140716 1 17841410567120591432
13540713 5 17988376948394537354
13583140 156 17749112171634450164
13590594 115 18124027937161872067
13757389 114 18269818973778592380
14251757 5 18411145719078222071
14556957 393 17984685741487749108
14790565 3 18051691350021476324
17539 30 18410011001170958215
1813 80 18048031874534115275
18365409 1 18411422834784343141
19301676 85 17397246709380385054
20602899 9 18044933712828002595
21033648 29 18263646319753254464
21307412 95 17899956512733389214
21344244 181 18045772649054038407
22182313 1 17981859115777566947
2255824 54 17474393951163039515
22620623 9 18338222821910210678
23419403 2 17388550310836961401
23536364 44 18199204901200933943
23557571 272 18337676313154570666
23558518 356 18200586987237738108
23559900 14 18268698589363533774
23929065 36 18266480740454057304
244849 19 17676787400302183594
25147074 1 17845948423887461498
283562 15 18270968925444049082
3103668 31 18341620279197679847
34934 24 17632008779885844000
38695281 34 18053100906858815853
5969126 39 18265057925205421862
7164475 11 18267859493627869006
7399639 24 17825398371396974728

> <PUBCHEM_SHAPE_MULTIPOLES>
507.5
10.12
5.84
1.36
11.97
3.69
-0.03
2.62
3.01
-14.33
1.16
0.15
0.05
-0.2

> <PUBCHEM_SHAPE_SELFOVERLAP>
1043.226

> <PUBCHEM_SHAPE_VOLUME>
286

> <PUBCHEM_COORDINATE_TYPE>
2
5
10

$$$$

