13025
  -OEChem-06261207403D

 20 21  0     0  0  0  0  0  0999 V2000
   -0.3034    0.9140    0.0004 C   0  0  0  0  0  0  0  0  0  0  0  0
    0.1934   -0.3983    0.0000 C   0  0  0  0  0  0  0  0  0  0  0  0
    0.8345    1.8863   -0.0004 C   0  0  0  0  0  0  0  0  0  0  0  0
    1.6538   -0.3472   -0.0002 C   0  0  0  0  0  0  0  0  0  0  0  0
    2.0157    0.9478   -0.0003 C   0  0  0  0  0  0  0  0  0  0  0  0
   -1.6629    1.1725    0.0005 C   0  0  0  0  0  0  0  0  0  0  0  0
   -0.6706   -1.4813   -0.0004 C   0  0  0  0  0  0  0  0  0  0  0  0
    2.5231   -1.5472    0.0007 C   0  0  0  0  0  0  0  0  0  0  0  0
   -2.5377    0.0846    0.0002 C   0  0  0  0  0  0  0  0  0  0  0  0
   -2.0459   -1.2312   -0.0004 C   0  0  0  0  0  0  0  0  0  0  0  0
    0.8290    2.5066   -0.9011 H   0  0  0  0  0  0  0  0  0  0  0  0
    0.8295    2.5075    0.8997 H   0  0  0  0  0  0  0  0  0  0  0  0
    3.0398    1.2949   -0.0002 H   0  0  0  0  0  0  0  0  0  0  0  0
   -2.0429    2.1881    0.0007 H   0  0  0  0  0  0  0  0  0  0  0  0
   -0.3025   -2.5018   -0.0009 H   0  0  0  0  0  0  0  0  0  0  0  0
    3.5829   -1.2714    0.0011 H   0  0  0  0  0  0  0  0  0  0  0  0
    2.3390   -2.1598   -0.8878 H   0  0  0  0  0  0  0  0  0  0  0  0
    2.3382   -2.1593    0.8893 H   0  0  0  0  0  0  0  0  0  0  0  0
   -3.6109    0.2557    0.0002 H   0  0  0  0  0  0  0  0  0  0  0  0
   -2.7442   -2.0640   -0.0008 H   0  0  0  0  0  0  0  0  0  0  0  0
  1  2  1  0  0  0  0
  1  3  1  0  0  0  0
  1  6  2  0  0  0  0
  2  4  1  0  0  0  0
  2  7  2  0  0  0  0
  3  5  1  0  0  0  0
  3 11  1  0  0  0  0
  3 12  1  0  0  0  0
  4  5  2  0  0  0  0
  4  8  1  0  0  0  0
  5 13  1  0  0  0  0
  6  9  1  0  0  0  0
  6 14  1  0  0  0  0
  7 10  1  0  0  0  0
  7 15  1  0  0  0  0
  8 16  1  0  0  0  0
  8 17  1  0  0  0  0
  8 18  1  0  0  0  0
  9 10  2  0  0  0  0
  9 19  1  0  0  0  0
 10 20  1  0  0  0  0
M  END
> <PUBCHEM_COMPOUND_CID>
13025

> <PUBCHEM_CONFORMER_RMSD>
0.4

> <PUBCHEM_CONFORMER_DIVERSEORDER>
1

> <PUBCHEM_MMFF94_PARTIAL_CHARGES>
15
1 -0.14
10 -0.15
13 0.15
14 0.15
15 0.15
19 0.15
2 0.03
20 0.15
3 0.28
4 -0.17
5 -0.29
6 -0.15
7 -0.15
8 0.14
9 -0.15

> <PUBCHEM_EFFECTIVE_ROTOR_COUNT>
0.2

> <PUBCHEM_PHARMACOPHORE_FEATURES>
2
5 1 2 3 4 5 rings
6 1 2 6 7 9 10 rings

> <PUBCHEM_HEAVY_ATOM_COUNT>
10

> <PUBCHEM_ATOM_DEF_STEREO_COUNT>
0

> <PUBCHEM_ATOM_UDEF_STEREO_COUNT>
0

> <PUBCHEM_BOND_DEF_STEREO_COUNT>
0

> <PUBCHEM_BOND_UDEF_STEREO_COUNT>
0

> <PUBCHEM_ISOTOPIC_ATOM_COUNT>
0

> <PUBCHEM_COMPONENT_COUNT>
1

> <PUBCHEM_CACTVS_TAUTO_COUNT>
1

> <PUBCHEM_CONFORMER_ID>
000032E100000001

> <PUBCHEM_MMFF94_ENERGY>
24.8691

> <PUBCHEM_FEATURE_SELFOVERLAP>
10.234

> <PUBCHEM_SHAPE_FINGERPRINT>
12423570 1 15519576737739595029
12524768 44 18411138004599325407
12897270 3 18195245507751023621
14128692 85 18410568509374123478
16945 1 18266459802145519237
18185500 45 18120656820792459839
19973954 147 18410854326415129169
21040471 1 18410855425800318785
23552423 10 18271241621185489134
23559900 14 17975134550914862950
241688 4 18340488979461768000
2748010 2 18410858780143176004
29004967 10 18269272374369410224
369184 2 14924237069791542935
5084963 1 18260270775904997491
7364860 26 18261673671438529640

> <PUBCHEM_SHAPE_MULTIPOLES>
205.8
3.4
1.92
0.62
0.05
0.1
0
-0.76
0
-0.39
0
0
0
0

> <PUBCHEM_SHAPE_SELFOVERLAP>
447.639

> <PUBCHEM_SHAPE_VOLUME>
106.5

> <PUBCHEM_COORDINATE_TYPE>
2
5
10

$$$$

