14122
  -OEChem-06241222422D

 32 32  0     0  0  0  0  0  0999 V2000
    4.0000    0.7500    0.0000 P   0  0  0  0  0  0  0  0  0  0  0  0
    4.8660    1.2500    0.0000 O   0  0  0  0  0  0  0  0  0  0  0  0
    3.5000    1.6160    0.0000 O   0  0  0  0  0  0  0  0  0  0  0  0
    4.5000   -0.1160    0.0000 O   0  0  0  0  0  0  0  0  0  0  0  0
    3.1340    0.2500    0.0000 C   0  0  0  0  0  0  0  0  0  0  0  0
    3.1340   -0.7500    0.0000 C   0  0  0  0  0  0  0  0  0  0  0  0
    2.2680   -1.2500    0.0000 C   0  0  0  0  0  0  0  0  0  0  0  0
    4.0000   -1.2500    0.0000 C   0  0  0  0  0  0  0  0  0  0  0  0
    4.8660    2.2500    0.0000 C   0  0  0  0  0  0  0  0  0  0  0  0
    2.5000    1.6160    0.0000 C   0  0  0  0  0  0  0  0  0  0  0  0
    2.2680   -2.2500    0.0000 C   0  0  0  0  0  0  0  0  0  0  0  0
    4.0000   -2.2500    0.0000 C   0  0  0  0  0  0  0  0  0  0  0  0
    3.1340   -2.7500    0.0000 C   0  0  0  0  0  0  0  0  0  0  0  0
    5.7320    2.7500    0.0000 C   0  0  0  0  0  0  0  0  0  0  0  0
    2.0000    2.4820    0.0000 C   0  0  0  0  0  0  0  0  0  0  0  0
    2.9219    0.8326    0.0000 H   0  0  0  0  0  0  0  0  0  0  0  0
    2.5234    0.1423    0.0000 H   0  0  0  0  0  0  0  0  0  0  0  0
    1.7310   -0.9400    0.0000 H   0  0  0  0  0  0  0  0  0  0  0  0
    4.5369   -0.9400    0.0000 H   0  0  0  0  0  0  0  0  0  0  0  0
    4.6540    2.8326    0.0000 H   0  0  0  0  0  0  0  0  0  0  0  0
    4.2554    2.1423    0.0000 H   0  0  0  0  0  0  0  0  0  0  0  0
    1.9174    1.4040    0.0000 H   0  0  0  0  0  0  0  0  0  0  0  0
    2.6077    1.0054    0.0000 H   0  0  0  0  0  0  0  0  0  0  0  0
    1.7310   -2.5600    0.0000 H   0  0  0  0  0  0  0  0  0  0  0  0
    4.5369   -2.5600    0.0000 H   0  0  0  0  0  0  0  0  0  0  0  0
    6.0420    2.2131    0.0000 H   0  0  0  0  0  0  0  0  0  0  0  0
    6.2690    3.0600    0.0000 H   0  0  0  0  0  0  0  0  0  0  0  0
    5.4220    3.2869    0.0000 H   0  0  0  0  0  0  0  0  0  0  0  0
    2.5369    2.7920    0.0000 H   0  0  0  0  0  0  0  0  0  0  0  0
    1.6900    3.0190    0.0000 H   0  0  0  0  0  0  0  0  0  0  0  0
    1.4631    2.1720    0.0000 H   0  0  0  0  0  0  0  0  0  0  0  0
    3.1340   -3.3700    0.0000 H   0  0  0  0  0  0  0  0  0  0  0  0
  1  2  1  0  0  0  0
  1  3  1  0  0  0  0
  1  4  2  0  0  0  0
  1  5  1  0  0  0  0
  2  9  1  0  0  0  0
  3 10  1  0  0  0  0
  5  6  1  0  0  0  0
  5 16  1  0  0  0  0
  5 17  1  0  0  0  0
  6  7  2  0  0  0  0
  6  8  1  0  0  0  0
  7 11  1  0  0  0  0
  7 18  1  0  0  0  0
  8 12  2  0  0  0  0
  8 19  1  0  0  0  0
  9 14  1  0  0  0  0
  9 20  1  0  0  0  0
  9 21  1  0  0  0  0
 10 15  1  0  0  0  0
 10 22  1  0  0  0  0
 10 23  1  0  0  0  0
 11 13  2  0  0  0  0
 11 24  1  0  0  0  0
 12 13  1  0  0  0  0
 12 25  1  0  0  0  0
 13 32  1  0  0  0  0
 14 26  1  0  0  0  0
 14 27  1  0  0  0  0
 14 28  1  0  0  0  0
 15 29  1  0  0  0  0
 15 30  1  0  0  0  0
 15 31  1  0  0  0  0
M  END
> <PUBCHEM_COMPOUND_CID>
14122

> <PUBCHEM_COMPOUND_CANONICALIZED>
1

> <PUBCHEM_CACTVS_COMPLEXITY>
202

> <PUBCHEM_CACTVS_HBOND_ACCEPTOR>
3

> <PUBCHEM_CACTVS_HBOND_DONOR>
0

> <PUBCHEM_CACTVS_ROTATABLE_BOND>
6

> <PUBCHEM_CACTVS_SUBSKEYS>
AAADceBwMAIAAAAAAAAAAAAAAAAAAAAAAAAwAAAAAAAAAAABAAAAGggAACAADAComAIyAIAAARCAQiBCAIACAAAgAAAIiAAAAIgIICKAERCAIAAggAAIiAcAgAAOAAAAAAAAAAAAAAAAAAAAAAAAAAAAAA==

> <PUBCHEM_IUPAC_OPENEYE_NAME>
diethoxyphosphorylmethylbenzene

> <PUBCHEM_IUPAC_CAS_NAME>
diethoxyphosphorylmethylbenzene

> <PUBCHEM_IUPAC_NAME>
diethoxyphosphorylmethylbenzene

> <PUBCHEM_IUPAC_SYSTEMATIC_NAME>
diethoxyphosphorylmethylbenzene

> <PUBCHEM_IUPAC_TRADITIONAL_NAME>
diethoxyphosphorylmethylbenzene

> <PUBCHEM_IUPAC_INCHI>
InChI=1S/C11H17O3P/c1-3-13-15(12,14-4-2)10-11-8-6-5-7-9-11/h5-9H,3-4,10H2,1-2H3

> <PUBCHEM_IUPAC_INCHIKEY>
AIPRAPZUGUTQKX-UHFFFAOYSA-N

> <PUBCHEM_XLOGP3_AA>
1.7

> <PUBCHEM_EXACT_MASS>
228.091531

> <PUBCHEM_MOLECULAR_FORMULA>
C11H17O3P

> <PUBCHEM_MOLECULAR_WEIGHT>
228.224642

> <PUBCHEM_OPENEYE_CAN_SMILES>
CCOP(=O)(CC1=CC=CC=C1)OCC

> <PUBCHEM_OPENEYE_ISO_SMILES>
CCOP(=O)(CC1=CC=CC=C1)OCC

> <PUBCHEM_CACTVS_TPSA>
35.5

> <PUBCHEM_MONOISOTOPIC_WEIGHT>
228.091531

> <PUBCHEM_TOTAL_CHARGE>
0

> <PUBCHEM_HEAVY_ATOM_COUNT>
15

> <PUBCHEM_ATOM_DEF_STEREO_COUNT>
0

> <PUBCHEM_ATOM_UDEF_STEREO_COUNT>
0

> <PUBCHEM_BOND_DEF_STEREO_COUNT>
0

> <PUBCHEM_BOND_UDEF_STEREO_COUNT>
0

> <PUBCHEM_ISOTOPIC_ATOM_COUNT>
0

> <PUBCHEM_COMPONENT_COUNT>
1

> <PUBCHEM_CACTVS_TAUTO_COUNT>
1

> <PUBCHEM_COORDINATE_TYPE>
1
5
255

> <PUBCHEM_BONDANNOTATIONS>
11  13  8
12  13  8
6  7  8
6  8  8
7  11  8
8  12  8

$$$$

