47205233
  -OEChem-06241222582D

 30 31  0     1  0  0  0  0  0999 V2000
    6.4712   -0.8227    0.0000 O   0  0  0  0  0  0  0  0  0  0  0  0
    5.3122    0.4645    0.0000 N   0  0  0  0  0  0  0  0  0  0  0  0
    2.8090   -0.4834    0.0000 N   0  0  0  0  0  0  0  0  0  0  0  0
    2.0000    0.1044    0.0000 N   0  0  0  0  0  0  0  0  0  0  0  0
    7.9575    0.5156    0.0000 C   0  0  3  0  0  0  0  0  0  0  0  0
    8.2665   -0.4355    0.0000 C   0  0  0  0  0  0  0  0  0  0  0  0
    9.2665   -0.4355    0.0000 C   0  0  0  0  0  0  0  0  0  0  0  0
    7.0064    0.8246    0.0000 C   0  0  0  0  0  0  0  0  0  0  0  0
    8.7665    1.1034    0.0000 C   0  0  0  0  0  0  0  0  0  0  0  0
    9.5755    0.5156    0.0000 C   0  0  0  0  0  0  0  0  0  0  0  0
    6.2633    0.1555    0.0000 C   0  0  0  0  0  0  0  0  0  0  0  0
    4.5691   -0.2046    0.0000 C   0  0  0  0  0  0  0  0  0  0  0  0
    3.6180    0.1044    0.0000 C   0  0  0  0  0  0  0  0  0  0  0  0
    3.3090    1.0554    0.0000 C   0  0  0  0  0  0  0  0  0  0  0  0
    2.3090    1.0554    0.0000 C   0  0  0  0  0  0  0  0  0  0  0  0
    7.8605    1.1280    0.0000 H   0  0  0  0  0  0  0  0  0  0  0  0
    7.6601   -0.5644    0.0000 H   0  0  0  0  0  0  0  0  0  0  0  0
    8.3313   -1.0521    0.0000 H   0  0  0  0  0  0  0  0  0  0  0  0
    9.2017   -1.0521    0.0000 H   0  0  0  0  0  0  0  0  0  0  0  0
    9.8730   -0.5644    0.0000 H   0  0  0  0  0  0  0  0  0  0  0  0
    7.2975    1.3720    0.0000 H   0  0  0  0  0  0  0  0  0  0  0  0
    6.5179    1.2063    0.0000 H   0  0  0  0  0  0  0  0  0  0  0  0
    8.7665    1.7234    0.0000 H   0  0  0  0  0  0  0  0  0  0  0  0
   10.1652    0.7072    0.0000 H   0  0  0  0  0  0  0  0  0  0  0  0
    5.1833    1.0710    0.0000 H   0  0  0  0  0  0  0  0  0  0  0  0
    4.2780   -0.7520    0.0000 H   0  0  0  0  0  0  0  0  0  0  0  0
    5.0577   -0.5863    0.0000 H   0  0  0  0  0  0  0  0  0  0  0  0
    3.6734    1.5570    0.0000 H   0  0  0  0  0  0  0  0  0  0  0  0
    2.8090   -1.1034    0.0000 H   0  0  0  0  0  0  0  0  0  0  0  0
    1.9446    1.5570    0.0000 H   0  0  0  0  0  0  0  0  0  0  0  0
  1 11  2  0  0  0  0
  2 11  1  0  0  0  0
  2 12  1  0  0  0  0
  2 25  1  0  0  0  0
  3  4  1  0  0  0  0
  3 13  1  0  0  0  0
  3 29  1  0  0  0  0
  4 15  2  0  0  0  0
  5  6  1  0  0  0  0
  5  8  1  0  0  0  0
  5  9  1  0  0  0  0
  5 16  1  0  0  0  0
  6  7  1  0  0  0  0
  6 17  1  0  0  0  0
  6 18  1  0  0  0  0
  7 10  1  0  0  0  0
  7 19  1  0  0  0  0
  7 20  1  0  0  0  0
  8 11  1  0  0  0  0
  8 21  1  0  0  0  0
  8 22  1  0  0  0  0
  9 10  2  0  0  0  0
  9 23  1  0  0  0  0
 10 24  1  0  0  0  0
 12 13  1  0  0  0  0
 12 26  1  0  0  0  0
 12 27  1  0  0  0  0
 13 14  2  0  0  0  0
 14 15  1  0  0  0  0
 14 28  1  0  0  0  0
 15 30  1  0  0  0  0
M  END
> <PUBCHEM_COMPOUND_CID>
47205233

> <PUBCHEM_COMPOUND_CANONICALIZED>
1

> <PUBCHEM_CACTVS_COMPLEXITY>
252

> <PUBCHEM_CACTVS_HBOND_ACCEPTOR>
2

> <PUBCHEM_CACTVS_HBOND_DONOR>
2

> <PUBCHEM_CACTVS_ROTATABLE_BOND>
4

> <PUBCHEM_CACTVS_SUBSKEYS>
AAADccBzIAAAAAAAAAAAAAAAAAAAAWIAAAAAAAAAAAAAAAABgAAAHgAYAAAADQjBlgQ8gJLjAACqATV3UACQBAAgggAYOaE4ZBgAYJIAwcEUhAhAngCIQAMYCAAOAAAAAAAAAAAAAAAAAAAAAAAAAAAAAA==

> <PUBCHEM_IUPAC_OPENEYE_NAME>
2-cyclopent-2-en-1-yl-N-(1H-pyrazol-5-ylmethyl)acetamide

> <PUBCHEM_IUPAC_CAS_NAME>
2-(1-cyclopent-2-enyl)-N-(1H-pyrazol-5-ylmethyl)acetamide

> <PUBCHEM_IUPAC_NAME>
2-cyclopent-2-en-1-yl-N-(1H-pyrazol-5-ylmethyl)acetamide

> <PUBCHEM_IUPAC_SYSTEMATIC_NAME>
2-cyclopent-2-en-1-yl-N-(1H-pyrazol-5-ylmethyl)ethanamide

> <PUBCHEM_IUPAC_TRADITIONAL_NAME>
2-cyclopent-2-en-1-yl-N-(1H-pyrazol-5-ylmethyl)acetamide

> <PUBCHEM_IUPAC_INCHI>
InChI=1S/C11H15N3O/c15-11(7-9-3-1-2-4-9)12-8-10-5-6-13-14-10/h1,3,5-6,9H,2,4,7-8H2,(H,12,15)(H,13,14)

> <PUBCHEM_IUPAC_INCHIKEY>
OPCJJXRQEQCIKR-UHFFFAOYSA-N

> <PUBCHEM_XLOGP3_AA>
0.8

> <PUBCHEM_EXACT_MASS>
205.121512

> <PUBCHEM_MOLECULAR_FORMULA>
C11H15N3O

> <PUBCHEM_MOLECULAR_WEIGHT>
205.2563

> <PUBCHEM_OPENEYE_CAN_SMILES>
C1CC(C=C1)CC(=O)NCC2=CC=NN2

> <PUBCHEM_OPENEYE_ISO_SMILES>
C1CC(C=C1)CC(=O)NCC2=CC=NN2

> <PUBCHEM_CACTVS_TPSA>
57.8

> <PUBCHEM_MONOISOTOPIC_WEIGHT>
205.121512

> <PUBCHEM_TOTAL_CHARGE>
0

> <PUBCHEM_HEAVY_ATOM_COUNT>
15

> <PUBCHEM_ATOM_DEF_STEREO_COUNT>
0

> <PUBCHEM_ATOM_UDEF_STEREO_COUNT>
1

> <PUBCHEM_BOND_DEF_STEREO_COUNT>
0

> <PUBCHEM_BOND_UDEF_STEREO_COUNT>
0

> <PUBCHEM_ISOTOPIC_ATOM_COUNT>
0

> <PUBCHEM_COMPONENT_COUNT>
1

> <PUBCHEM_CACTVS_TAUTO_COUNT>
4

> <PUBCHEM_COORDINATE_TYPE>
1
5
255

> <PUBCHEM_BONDANNOTATIONS>
13  14  8
14  15  8
3  13  8
3  4  8
4  15  8
5  8  3

$$$$

