4857
  -OEChem-06261200223D

 63 65  0     1  0  0  0  0  0999 V2000
   -0.1637   -2.6866   -2.0379 S   0  0  0  0  0  0  0  0  0  0  0  0
   -0.4358   -2.9669    2.3491 O   0  0  0  0  0  0  0  0  0  0  0  0
    2.0302   -0.5578    1.3192 O   0  0  0  0  0  0  0  0  0  0  0  0
    3.8101   -1.8550    0.6205 O   0  0  0  0  0  0  0  0  0  0  0  0
    3.5361    1.3070    1.1449 O   0  0  0  0  0  0  0  0  0  0  0  0
    1.4692    2.0835    0.4967 O   0  0  0  0  0  0  0  0  0  0  0  0
    0.2764   -1.8703    0.3843 N   0  0  0  0  0  0  0  0  0  0  0  0
   -2.7044   -1.2354    0.7728 N   0  0  0  0  0  0  0  0  0  0  0  0
   -4.5854    0.0255    0.0492 N   0  0  0  0  0  0  0  0  0  0  0  0
   -0.7279   -1.6281   -0.6556 C   0  0  2  0  0  0  0  0  0  0  0  0
    1.6156   -2.4615   -1.5350 C   0  0  0  0  0  0  0  0  0  0  0  0
    1.5578   -2.4317    0.0075 C   0  0  1  0  0  0  0  0  0  0  0  0
   -1.7673   -2.2329    0.2982 C   0  0  1  0  0  0  0  0  0  0  0  0
   -0.5931   -2.4244    1.2788 C   0  0  0  0  0  0  0  0  0  0  0  0
    2.1277   -1.1655   -2.1782 C   0  0  0  0  0  0  0  0  0  0  0  0
    2.4297   -3.6544   -2.0395 C   0  0  0  0  0  0  0  0  0  0  0  0
    2.6133   -1.6060    0.6713 C   0  0  0  0  0  0  0  0  0  0  0  0
   -3.5901   -0.8791   -0.1049 C   0  0  0  0  0  0  0  0  0  0  0  0
   -5.4366    0.4358   -1.0626 C   0  0  0  0  0  0  0  0  0  0  0  0
   -4.7827    0.7448    1.3015 C   0  0  0  0  0  0  0  0  0  0  0  0
   -4.9080    1.7038   -1.7269 C   0  0  0  0  0  0  0  0  0  0  0  0
   -3.8133    1.9147    1.4363 C   0  0  0  0  0  0  0  0  0  0  0  0
   -4.7499    2.8994   -0.7797 C   0  0  0  0  0  0  0  0  0  0  0  0
   -3.5668    2.7559    0.1795 C   0  0  0  0  0  0  0  0  0  0  0  0
    2.9199    0.3369    2.0075 C   0  0  0  0  0  0  0  0  0  0  0  0
    3.4921    3.0875   -0.4362 C   0  0  0  0  0  0  0  0  0  0  0  0
    2.6925    2.1214    0.4433 C   0  0  0  0  0  0  0  0  0  0  0  0
    2.5242    3.9813   -1.2281 C   0  0  0  0  0  0  0  0  0  0  0  0
    4.3500    2.2837   -1.4228 C   0  0  0  0  0  0  0  0  0  0  0  0
    4.3800    3.9745    0.4468 C   0  0  0  0  0  0  0  0  0  0  0  0
   -0.8219   -0.5639   -0.8947 H   0  0  0  0  0  0  0  0  0  0  0  0
    1.6100   -3.4407    0.4372 H   0  0  0  0  0  0  0  0  0  0  0  0
   -2.2313   -3.1795   -0.0007 H   0  0  0  0  0  0  0  0  0  0  0  0
    2.0278   -1.1923   -3.2698 H   0  0  0  0  0  0  0  0  0  0  0  0
    1.5926   -0.2812   -1.8144 H   0  0  0  0  0  0  0  0  0  0  0  0
    3.1915   -1.0135   -1.9632 H   0  0  0  0  0  0  0  0  0  0  0  0
    2.4151   -3.7197   -3.1337 H   0  0  0  0  0  0  0  0  0  0  0  0
    3.4777   -3.5657   -1.7316 H   0  0  0  0  0  0  0  0  0  0  0  0
    2.0526   -4.6036   -1.6415 H   0  0  0  0  0  0  0  0  0  0  0  0
   -3.5769   -1.3266   -1.1153 H   0  0  0  0  0  0  0  0  0  0  0  0
   -6.4628    0.6004   -0.7115 H   0  0  0  0  0  0  0  0  0  0  0  0
   -5.5030   -0.3643   -1.8100 H   0  0  0  0  0  0  0  0  0  0  0  0
   -5.8123    1.1183    1.3676 H   0  0  0  0  0  0  0  0  0  0  0  0
   -4.6656    0.0668    2.1560 H   0  0  0  0  0  0  0  0  0  0  0  0
   -3.9471    1.4932   -2.2130 H   0  0  0  0  0  0  0  0  0  0  0  0
   -5.6047    1.9846   -2.5263 H   0  0  0  0  0  0  0  0  0  0  0  0
   -4.1871    2.5698    2.2337 H   0  0  0  0  0  0  0  0  0  0  0  0
   -2.8424    1.5455    1.7909 H   0  0  0  0  0  0  0  0  0  0  0  0
   -4.5673    3.7847   -1.4020 H   0  0  0  0  0  0  0  0  0  0  0  0
   -5.6792    3.0911   -0.2312 H   0  0  0  0  0  0  0  0  0  0  0  0
   -3.2551    3.7563    0.5060 H   0  0  0  0  0  0  0  0  0  0  0  0
   -2.7073    2.3433   -0.3646 H   0  0  0  0  0  0  0  0  0  0  0  0
    2.3452    0.8607    2.7796 H   0  0  0  0  0  0  0  0  0  0  0  0
    3.7106   -0.2222    2.5202 H   0  0  0  0  0  0  0  0  0  0  0  0
    3.0665    4.6832   -1.8714 H   0  0  0  0  0  0  0  0  0  0  0  0
    1.8855    4.5674   -0.5571 H   0  0  0  0  0  0  0  0  0  0  0  0
    1.8643    3.3832   -1.8674 H   0  0  0  0  0  0  0  0  0  0  0  0
    3.7292    1.6151   -2.0298 H   0  0  0  0  0  0  0  0  0  0  0  0
    5.0877    1.6607   -0.9048 H   0  0  0  0  0  0  0  0  0  0  0  0
    4.8969    2.9461   -2.1030 H   0  0  0  0  0  0  0  0  0  0  0  0
    5.1242    3.3839    0.9929 H   0  0  0  0  0  0  0  0  0  0  0  0
    3.7820    4.5116    1.1921 H   0  0  0  0  0  0  0  0  0  0  0  0
    4.9209    4.7158   -0.1518 H   0  0  0  0  0  0  0  0  0  0  0  0
  1 10  1  0  0  0  0
  1 11  1  0  0  0  0
  2 14  2  0  0  0  0
  3 17  1  0  0  0  0
  3 25  1  0  0  0  0
  4 17  2  0  0  0  0
  5 25  1  0  0  0  0
  5 27  1  0  0  0  0
  6 27  2  0  0  0  0
  7 10  1  0  0  0  0
  7 12  1  0  0  0  0
  7 14  1  0  0  0  0
  8 13  1  0  0  0  0
  8 18  2  0  0  0  0
  9 18  1  0  0  0  0
  9 19  1  0  0  0  0
  9 20  1  0  0  0  0
 10 13  1  0  0  0  0
 10 31  1  0  0  0  0
 11 12  1  0  0  0  0
 11 15  1  0  0  0  0
 11 16  1  0  0  0  0
 12 17  1  0  0  0  0
 12 32  1  0  0  0  0
 13 14  1  0  0  0  0
 13 33  1  0  0  0  0
 15 34  1  0  0  0  0
 15 35  1  0  0  0  0
 15 36  1  0  0  0  0
 16 37  1  0  0  0  0
 16 38  1  0  0  0  0
 16 39  1  0  0  0  0
 18 40  1  0  0  0  0
 19 21  1  0  0  0  0
 19 41  1  0  0  0  0
 19 42  1  0  0  0  0
 20 22  1  0  0  0  0
 20 43  1  0  0  0  0
 20 44  1  0  0  0  0
 21 23  1  0  0  0  0
 21 45  1  0  0  0  0
 21 46  1  0  0  0  0
 22 24  1  0  0  0  0
 22 47  1  0  0  0  0
 22 48  1  0  0  0  0
 23 24  1  0  0  0  0
 23 49  1  0  0  0  0
 23 50  1  0  0  0  0
 24 51  1  0  0  0  0
 24 52  1  0  0  0  0
 25 53  1  0  0  0  0
 25 54  1  0  0  0  0
 26 27  1  0  0  0  0
 26 28  1  0  0  0  0
 26 29  1  0  0  0  0
 26 30  1  0  0  0  0
 28 55  1  0  0  0  0
 28 56  1  0  0  0  0
 28 57  1  0  0  0  0
 29 58  1  0  0  0  0
 29 59  1  0  0  0  0
 29 60  1  0  0  0  0
 30 61  1  0  0  0  0
 30 62  1  0  0  0  0
 30 63  1  0  0  0  0
M  END
> <PUBCHEM_COMPOUND_CID>
4857

> <PUBCHEM_CONFORMER_RMSD>
1.4

> <PUBCHEM_CONFORMER_DIVERSEORDER>
1
13
70
59
26
15
5
80
73
66
81
20
21
17
85
69
27
24
45
65
51
86
55
57
79
7
91
25
72
40
64
76
67
34
47
18
10
3
92
32
62
90
38
58
30
46
61
89
42
8
50
68
75
19
54
87
78
41
22
33
49
43
6
35
71
37
2
28
9
74
36
23
12
77
48
39
29
56
52
60
16
44
88
63
31
11
53
84
14
83
82
4

> <PUBCHEM_MMFF94_PARTIAL_CHARGES>
22
1 -0.45
10 0.44
11 0.23
12 0.36
13 0.34
14 0.58
17 0.66
18 0.44
19 0.37
2 -0.57
20 0.37
25 0.56
26 0.06
27 0.66
3 -0.43
4 -0.57
40 0.06
5 -0.43
6 -0.57
7 -0.59
8 -0.74
9 -0.79

> <PUBCHEM_EFFECTIVE_ROTOR_COUNT>
10.2

> <PUBCHEM_PHARMACOPHORE_FEATURES>
9
1 2 acceptor
1 4 acceptor
1 6 acceptor
3 11 15 16 hydrophobe
3 8 9 18 cation
4 26 28 29 30 hydrophobe
4 7 10 13 14 rings
7 1 7 10 11 12 13 14 rings
7 9 19 20 21 22 23 24 rings

> <PUBCHEM_HEAVY_ATOM_COUNT>
30

> <PUBCHEM_ATOM_DEF_STEREO_COUNT>
0

> <PUBCHEM_ATOM_UDEF_STEREO_COUNT>
3

> <PUBCHEM_BOND_DEF_STEREO_COUNT>
0

> <PUBCHEM_BOND_UDEF_STEREO_COUNT>
0

> <PUBCHEM_ISOTOPIC_ATOM_COUNT>
0

> <PUBCHEM_COMPONENT_COUNT>
1

> <PUBCHEM_CACTVS_TAUTO_COUNT>
1

> <PUBCHEM_CONFORMER_ID>
000012F900000001

> <PUBCHEM_MMFF94_ENERGY>
71.3327

> <PUBCHEM_FEATURE_SELFOVERLAP>
49.402

> <PUBCHEM_SHAPE_FINGERPRINT>
10670039 82 18194959647871582316
11221954 11 18410286982726190019
11513181 2 18187082884050873141
12422481 6 18129402444319156944
12633257 1 17701846326808470874
12824470 246 9510643128067210682
13583140 156 17987236810713215419
13617811 41 17035294675485915430
13761468 95 17617341045484360948
14251764 38 18410578422406991165
15163728 17 18189324680680328158
15210252 30 17904468959011524488
15475509 84 16905548441757526811
16988056 13 18191024710619811548
20764821 26 18197208363851633573
21458453 9 10734753436886019900
21475661 188 18342468079180659163
21641784 216 17536616014364594151
21857420 4 17831580147469113036
21860390 5 18262804097850519110
3298306 158 18336828580867979861
4066623 53 17038669630547429695
46194498 28 18260257573550634831
474 4 18411426098400480715
5081480 168 17898267636232278909
53794403 172 18340483478194847765
6086070 43 17983597465605734015
6287921 2 18187363285433426173
6608658 132 17760376495697549871

> <PUBCHEM_SHAPE_MULTIPOLES>
576.95
10.71
5.72
2.1
10.86
2.22
0.16
10.85
1.21
-5.22
1.58
-0.47
-1.01
0.82

> <PUBCHEM_SHAPE_SELFOVERLAP>
1173.695

> <PUBCHEM_SHAPE_VOLUME>
339.8

> <PUBCHEM_COORDINATE_TYPE>
2
5
10

$$$$

