12567
  -OEChem-06261207062D

 39 39  0     1  0  0  0  0  0999 V2000
    5.4641    2.1340    0.0000 O   0  0  0  0  0  0  0  0  0  0  0  0
    3.7320    0.1340    0.0000 O   0  0  0  0  0  0  0  0  0  0  0  0
    2.0000    0.1340    0.0000 O   0  0  0  0  0  0  0  0  0  0  0  0
    2.8660    1.6340    0.0000 N   0  0  0  0  0  0  0  0  0  0  0  0
    4.5981    1.6340    0.0000 C   0  0  3  0  0  0  0  0  0  0  0  0
    3.7320    1.1340    0.0000 C   0  0  3  0  0  0  0  0  0  0  0  0
    4.0981    2.5000    0.0000 C   0  0  0  0  0  0  0  0  0  0  0  0
    5.0981    0.7679    0.0000 C   0  0  0  0  0  0  0  0  0  0  0  0
    4.5981    3.3660    0.0000 C   0  0  0  0  0  0  0  0  0  0  0  0
    2.8660    2.6340    0.0000 C   0  0  0  0  0  0  0  0  0  0  0  0
    2.0000    1.1340    0.0000 C   0  0  0  0  0  0  0  0  0  0  0  0
    2.8660   -0.3660    0.0000 C   0  0  0  0  0  0  0  0  0  0  0  0
    2.8660   -1.3660    0.0000 C   0  0  0  0  0  0  0  0  0  0  0  0
    2.0000   -1.8660    0.0000 C   0  0  0  0  0  0  0  0  0  0  0  0
    3.7320   -1.8660    0.0000 C   0  0  0  0  0  0  0  0  0  0  0  0
    2.0000   -2.8660    0.0000 C   0  0  0  0  0  0  0  0  0  0  0  0
    3.7320   -2.8660    0.0000 C   0  0  0  0  0  0  0  0  0  0  0  0
    2.8660   -3.3660    0.0000 C   0  0  0  0  0  0  0  0  0  0  0  0
    4.2690    0.8240    0.0000 H   0  0  0  0  0  0  0  0  0  0  0  0
    3.6231    2.8985    0.0000 H   0  0  0  0  0  0  0  0  0  0  0  0
    3.6231    2.1015    0.0000 H   0  0  0  0  0  0  0  0  0  0  0  0
    4.5611    0.4579    0.0000 H   0  0  0  0  0  0  0  0  0  0  0  0
    5.4081    0.2310    0.0000 H   0  0  0  0  0  0  0  0  0  0  0  0
    5.6350    1.0780    0.0000 H   0  0  0  0  0  0  0  0  0  0  0  0
    5.1350    3.0560    0.0000 H   0  0  0  0  0  0  0  0  0  0  0  0
    4.9081    3.9030    0.0000 H   0  0  0  0  0  0  0  0  0  0  0  0
    4.0611    3.6760    0.0000 H   0  0  0  0  0  0  0  0  0  0  0  0
    6.0010    1.8240    0.0000 H   0  0  0  0  0  0  0  0  0  0  0  0
    3.4860    2.6340    0.0000 H   0  0  0  0  0  0  0  0  0  0  0  0
    2.8660    3.2540    0.0000 H   0  0  0  0  0  0  0  0  0  0  0  0
    2.2460    2.6340    0.0000 H   0  0  0  0  0  0  0  0  0  0  0  0
    1.6900    1.6709    0.0000 H   0  0  0  0  0  0  0  0  0  0  0  0
    1.4631    0.8240    0.0000 H   0  0  0  0  0  0  0  0  0  0  0  0
    2.3100    0.5970    0.0000 H   0  0  0  0  0  0  0  0  0  0  0  0
    1.4631   -1.5560    0.0000 H   0  0  0  0  0  0  0  0  0  0  0  0
    4.2690   -1.5560    0.0000 H   0  0  0  0  0  0  0  0  0  0  0  0
    1.4631   -3.1760    0.0000 H   0  0  0  0  0  0  0  0  0  0  0  0
    4.2690   -3.1760    0.0000 H   0  0  0  0  0  0  0  0  0  0  0  0
    2.8660   -3.9860    0.0000 H   0  0  0  0  0  0  0  0  0  0  0  0
  1  5  1  0  0  0  0
  1 28  1  0  0  0  0
  2  6  1  0  0  0  0
  2 12  1  0  0  0  0
  3 12  2  0  0  0  0
  4  6  1  0  0  0  0
  4 10  1  0  0  0  0
  4 11  1  0  0  0  0
  5  6  1  0  0  0  0
  5  7  1  0  0  0  0
  5  8  1  0  0  0  0
  6 19  1  0  0  0  0
  7  9  1  0  0  0  0
  7 20  1  0  0  0  0
  7 21  1  0  0  0  0
  8 22  1  0  0  0  0
  8 23  1  0  0  0  0
  8 24  1  0  0  0  0
  9 25  1  0  0  0  0
  9 26  1  0  0  0  0
  9 27  1  0  0  0  0
 10 29  1  0  0  0  0
 10 30  1  0  0  0  0
 10 31  1  0  0  0  0
 11 32  1  0  0  0  0
 11 33  1  0  0  0  0
 11 34  1  0  0  0  0
 12 13  1  0  0  0  0
 13 14  2  0  0  0  0
 13 15  1  0  0  0  0
 14 16  1  0  0  0  0
 14 35  1  0  0  0  0
 15 17  2  0  0  0  0
 15 36  1  0  0  0  0
 16 18  2  0  0  0  0
 16 37  1  0  0  0  0
 17 18  1  0  0  0  0
 17 38  1  0  0  0  0
 18 39  1  0  0  0  0
M  END
> <PUBCHEM_COMPOUND_CID>
12567

> <PUBCHEM_COMPOUND_CANONICALIZED>
1

> <PUBCHEM_CACTVS_COMPLEXITY>
274

> <PUBCHEM_CACTVS_HBOND_ACCEPTOR>
4

> <PUBCHEM_CACTVS_HBOND_DONOR>
1

> <PUBCHEM_CACTVS_ROTATABLE_BOND>
6

> <PUBCHEM_CACTVS_SUBSKEYS>
AAADceByMAAAAAAAAAAAAAAAAAAAAAAAAAAwAAAAAAAAAAABAAAAHgAACAAADEThmAYyCIMABgCIAiDSCAACAAAkAAAIiAEICMgLJjKAtRiOcQAkwAEbqYeIyCCOAAAAAAAAAAAAAAAAAAAAAAAAAAAAAA==

> <PUBCHEM_IUPAC_OPENEYE_NAME>
[1-(dimethylamino)-2-hydroxy-2-methyl-butyl] benzoate

> <PUBCHEM_IUPAC_CAS_NAME>
benzoic acid [1-(dimethylamino)-2-hydroxy-2-methylbutyl] ester

> <PUBCHEM_IUPAC_NAME>
[1-(dimethylamino)-2-hydroxy-2-methylbutyl] benzoate

> <PUBCHEM_IUPAC_SYSTEMATIC_NAME>
[1-(dimethylamino)-2-methyl-2-oxidanyl-butyl] benzoate

> <PUBCHEM_IUPAC_TRADITIONAL_NAME>
benzoic acid [1-(dimethylamino)-2-hydroxy-2-methyl-butyl] ester

> <PUBCHEM_IUPAC_INCHI>
InChI=1S/C14H21NO3/c1-5-14(2,17)13(15(3)4)18-12(16)11-9-7-6-8-10-11/h6-10,13,17H,5H2,1-4H3

> <PUBCHEM_IUPAC_INCHIKEY>
RGDRJYPGKATNHW-UHFFFAOYSA-N

> <PUBCHEM_XLOGP3_AA>
2.4

> <PUBCHEM_EXACT_MASS>
251.152144

> <PUBCHEM_MOLECULAR_FORMULA>
C14H21NO3

> <PUBCHEM_MOLECULAR_WEIGHT>
251.32144

> <PUBCHEM_OPENEYE_CAN_SMILES>
CCC(C)(C(N(C)C)OC(=O)C1=CC=CC=C1)O

> <PUBCHEM_OPENEYE_ISO_SMILES>
CCC(C)(C(N(C)C)OC(=O)C1=CC=CC=C1)O

> <PUBCHEM_CACTVS_TPSA>
49.8

> <PUBCHEM_MONOISOTOPIC_WEIGHT>
251.152144

> <PUBCHEM_TOTAL_CHARGE>
0

> <PUBCHEM_HEAVY_ATOM_COUNT>
18

> <PUBCHEM_ATOM_DEF_STEREO_COUNT>
0

> <PUBCHEM_ATOM_UDEF_STEREO_COUNT>
2

> <PUBCHEM_BOND_DEF_STEREO_COUNT>
0

> <PUBCHEM_BOND_UDEF_STEREO_COUNT>
0

> <PUBCHEM_ISOTOPIC_ATOM_COUNT>
0

> <PUBCHEM_COMPONENT_COUNT>
1

> <PUBCHEM_CACTVS_TAUTO_COUNT>
1

> <PUBCHEM_COORDINATE_TYPE>
1
5
255

> <PUBCHEM_BONDANNOTATIONS>
5  1  3
13  14  8
13  15  8
14  16  8
15  17  8
16  18  8
17  18  8
6  4  3

$$$$

