17396333
  -OEChem-06241222563D

 34 36  0     1  0  0  0  0  0999 V2000
    5.7082    1.0593    0.6002 S   0  0  0  0  0  0  0  0  0  0  0  0
   -4.9017   -0.4625   -0.8146 O   0  0  0  0  0  0  0  0  0  0  0  0
   -0.2167   -0.1492    1.2898 O   0  0  0  0  0  0  0  0  0  0  0  0
    2.0621   -1.9049   -0.8341 O   0  0  0  0  0  0  0  0  0  0  0  0
   -2.0037   -0.2178   -0.1946 N   0  0  0  0  0  0  0  0  0  0  0  0
    1.5755    0.3790   -0.6534 N   0  0  0  0  0  0  0  0  0  0  0  0
    3.2445    1.9632    0.0369 N   0  0  0  0  0  0  0  0  0  0  0  0
   -3.0412   -0.5210    0.7650 C   0  0  1  0  0  0  0  0  0  0  0  0
    0.1927    0.1981   -1.0658 C   0  0  0  0  0  0  0  0  0  0  0  0
   -4.3773    0.0434    0.3323 C   0  0  0  0  0  0  0  0  0  0  0  0
   -0.6700   -0.0566    0.1518 C   0  0  0  0  0  0  0  0  0  0  0  0
   -3.0955   -2.0255    1.0217 C   0  0  0  0  0  0  0  0  0  0  0  0
    2.4067   -0.7550   -0.5787 C   0  0  0  0  0  0  0  0  0  0  0  0
    3.7598   -0.4277   -0.1541 C   0  0  0  0  0  0  0  0  0  0  0  0
    4.0766    0.8902    0.1192 C   0  0  0  0  0  0  0  0  0  0  0  0
    2.0406    1.6590   -0.3431 C   0  0  0  0  0  0  0  0  0  0  0  0
   -5.2132    0.9962    0.8665 C   0  0  0  0  0  0  0  0  0  0  0  0
    4.8678   -1.3020    0.0338 C   0  0  0  0  0  0  0  0  0  0  0  0
   -6.3225    1.0812   -0.0083 C   0  0  0  0  0  0  0  0  0  0  0  0
   -6.0855    0.1741   -1.0148 C   0  0  0  0  0  0  0  0  0  0  0  0
    5.9929   -0.6214    0.4443 C   0  0  0  0  0  0  0  0  0  0  0  0
   -2.7666   -0.0344    1.7100 H   0  0  0  0  0  0  0  0  0  0  0  0
   -0.1631    1.1042   -1.5684 H   0  0  0  0  0  0  0  0  0  0  0  0
    0.1081   -0.6522   -1.7507 H   0  0  0  0  0  0  0  0  0  0  0  0
   -2.2634   -0.1637   -1.1759 H   0  0  0  0  0  0  0  0  0  0  0  0
   -3.3220   -2.5795    0.1033 H   0  0  0  0  0  0  0  0  0  0  0  0
   -2.1369   -2.3961    1.4008 H   0  0  0  0  0  0  0  0  0  0  0  0
   -3.8688   -2.2697    1.7583 H   0  0  0  0  0  0  0  0  0  0  0  0
    1.2778    2.4475   -0.4425 H   0  0  0  0  0  0  0  0  0  0  0  0
   -5.0460    1.5602    1.7729 H   0  0  0  0  0  0  0  0  0  0  0  0
    4.8473   -2.3731   -0.1219 H   0  0  0  0  0  0  0  0  0  0  0  0
   -7.1866    1.7231    0.0832 H   0  0  0  0  0  0  0  0  0  0  0  0
   -6.6314   -0.1216   -1.8986 H   0  0  0  0  0  0  0  0  0  0  0  0
    6.9692   -1.0317    0.6603 H   0  0  0  0  0  0  0  0  0  0  0  0
  1 15  1  0  0  0  0
  1 21  1  0  0  0  0
  2 10  1  0  0  0  0
  2 20  1  0  0  0  0
  3 11  2  0  0  0  0
  4 13  2  0  0  0  0
  5  8  1  0  0  0  0
  5 11  1  0  0  0  0
  5 25  1  0  0  0  0
  6  9  1  0  0  0  0
  6 13  1  0  0  0  0
  6 16  1  0  0  0  0
  7 15  1  0  0  0  0
  7 16  2  0  0  0  0
  8 10  1  0  0  0  0
  8 12  1  0  0  0  0
  8 22  1  0  0  0  0
  9 11  1  0  0  0  0
  9 23  1  0  0  0  0
  9 24  1  0  0  0  0
 10 17  2  0  0  0  0
 12 26  1  0  0  0  0
 12 27  1  0  0  0  0
 12 28  1  0  0  0  0
 13 14  1  0  0  0  0
 14 15  2  0  0  0  0
 14 18  1  0  0  0  0
 16 29  1  0  0  0  0
 17 19  1  0  0  0  0
 17 30  1  0  0  0  0
 18 21  2  0  0  0  0
 18 31  1  0  0  0  0
 19 20  2  0  0  0  0
 19 32  1  0  0  0  0
 20 33  1  0  0  0  0
 21 34  1  0  0  0  0
M  END
> <PUBCHEM_COMPOUND_CID>
17396333

> <PUBCHEM_CONFORMER_RMSD>
0.8

> <PUBCHEM_CONFORMER_DIVERSEORDER>
2
44
118
8
106
132
112
77
116
109
78
48
110
67
47
121
66
51
24
73
91
93
131
128
59
3
89
69
46
13
70
98
119
94
105
83
101
55
68
31
42
102
75
135
137
72
54
41
100
17
16
120
5
43
60
114
84
88
49
99
115
108
103
10
134
130
76
4
65
123
45
138
27
1
62
86
104
107
61
124
117
113
96
95
57
127
136
14
129
22
39
15
64
56
28
82
92
38
79
85
50
122
21
125
33
23
29
35
111
18
53
26
126
12
71
40
9
90
32
37
97
11
133
30
7
74
6
36
63
87
81
34
20
58
25
80
19
52

> <PUBCHEM_MMFF94_PARTIAL_CHARGES>
27
1 -0.08
10 -0.04
11 0.57
13 0.72
14 -0.09
15 0.17
16 0.45
17 -0.15
18 -0.15
19 -0.15
2 -0.28
20 -0.01
21 -0.11
25 0.37
29 0.06
3 -0.57
30 0.15
31 0.15
32 0.15
33 0.15
34 0.15
4 -0.57
5 -0.73
6 -0.42
7 -0.58
8 0.48
9 0.36

> <PUBCHEM_EFFECTIVE_ROTOR_COUNT>
5

> <PUBCHEM_PHARMACOPHORE_FEATURES>
7
1 2 acceptor
1 3 acceptor
1 4 acceptor
1 5 donor
5 1 14 15 18 21 rings
5 2 10 17 19 20 rings
6 6 7 13 14 15 16 rings

> <PUBCHEM_HEAVY_ATOM_COUNT>
21

> <PUBCHEM_ATOM_DEF_STEREO_COUNT>
0

> <PUBCHEM_ATOM_UDEF_STEREO_COUNT>
1

> <PUBCHEM_BOND_DEF_STEREO_COUNT>
0

> <PUBCHEM_BOND_UDEF_STEREO_COUNT>
0

> <PUBCHEM_ISOTOPIC_ATOM_COUNT>
0

> <PUBCHEM_COMPONENT_COUNT>
1

> <PUBCHEM_CACTVS_TAUTO_COUNT>
2

> <PUBCHEM_CONFORMER_ID>
0109726D00000002

> <PUBCHEM_MMFF94_ENERGY>
29.0979

> <PUBCHEM_FEATURE_SELFOVERLAP>
35.601

> <PUBCHEM_SHAPE_FINGERPRINT>
10087517 78 18041557053023064177
10595046 47 18040436599118154989
10688039 33 18202284736154558988
11045977 3 18411979131490628306
11089746 13 18334016085937221233
11405975 8 18201151062250479883
11545043 162 17632006456260843761
11646440 116 17846770828515160329
117890 112 18335137600550637929
11796584 16 17060333016387357194
12236239 1 17530686511026494982
12916748 109 6627751089263873382
13167372 99 18188206606267384489
13533116 47 18337674226017210434
13583140 156 17969220049443959251
14251718 22 6844205341795403243
14251758 9 17203610384886514675
14341114 176 18343297068045931952
14790565 3 17335046864266257516
15142383 8 15051744100507163535
15183329 4 18272090521587555785
15348495 7 17703219616515149201
15531645 54 18131632296327167489
15537594 2 15913334584581037690
15788980 27 18260827077359840247
19141452 34 18130786733320704175
19489759 90 18040152933592072537
200 152 18040152916100940753
20511986 3 17895208713395620951
21054139 6 16660936503955172511
21521721 280 9799399041160192830
22224240 67 18041006137820738994
22950370 63 11887955449779583767
23035841 295 10735877279102391917
23402539 116 18334860524190183149
23536379 177 18333170583249742961
23559900 14 18412825754995499560
26918003 58 18411135827161643802
300161 21 18187366545392796447
34797466 226 4895270451219685984
351380 180 18409166606247536001
351380 3 13398631636526297697
4015057 19 18337395920784230529
4072396 5 18334862731808530946
4073 2 18201997677556384970
4325135 7 7925910378917950129
46194498 28 7781511529991073186
5104073 3 18200307715088276784
5283173 99 18337393846183398041
5312625 73 8790880778867990582
5385378 56 17274261794311196947
542803 24 17240481420723676117
633830 44 16486690251733933475
7226269 152 17775286071244792101

> <PUBCHEM_SHAPE_MULTIPOLES>
403.47
16.65
1.62
1.02
9.24
0.14
0.02
-2.42
1.07
-0.81
0.13
0.57
0.11
0.45

> <PUBCHEM_SHAPE_SELFOVERLAP>
860.769

> <PUBCHEM_SHAPE_VOLUME>
225.9

> <PUBCHEM_COORDINATE_TYPE>
2
5
10

$$$$

