17395502
  -OEChem-06241222503D

 36 37  0     0  0  0  0  0  0999 V2000
    1.8738    1.4190   -1.8057 O   0  0  0  0  0  0  0  0  0  0  0  0
   -3.4188    1.0603    0.9716 O   0  0  0  0  0  0  0  0  0  0  0  0
   -4.1355   -0.7622   -0.2203 O   0  0  0  0  0  0  0  0  0  0  0  0
    2.7209    0.1506   -0.0855 N   0  0  0  0  0  0  0  0  0  0  0  0
    0.0640   -1.2900   -0.7193 N   0  0  0  0  0  0  0  0  0  0  0  0
    3.9049   -0.5902    1.8136 C   0  0  0  0  0  0  0  0  0  0  0  0
    4.9040   -0.1438    0.7543 C   0  0  0  0  0  0  0  0  0  0  0  0
    2.6361   -0.8208    1.0045 C   0  0  0  0  0  0  0  0  0  0  0  0
    4.0573    0.7258   -0.1618 C   0  0  0  0  0  0  0  0  0  0  0  0
    1.6871    0.5911   -0.9121 C   0  0  0  0  0  0  0  0  0  0  0  0
    0.3567    0.0473   -0.6560 C   0  0  0  0  0  0  0  0  0  0  0  0
   -0.7994    0.7169   -0.3212 C   0  0  0  0  0  0  0  0  0  0  0  0
   -1.8231   -0.2521   -0.1779 C   0  0  0  0  0  0  0  0  0  0  0  0
   -1.2613   -1.4843   -0.4292 C   0  0  0  0  0  0  0  0  0  0  0  0
   -0.9467    2.1771   -0.1442 C   0  0  0  0  0  0  0  0  0  0  0  0
   -1.8461   -2.8395   -0.4256 C   0  0  0  0  0  0  0  0  0  0  0  0
   -3.2011   -0.0379    0.1639 C   0  0  0  0  0  0  0  0  0  0  0  0
   -4.7727    1.3325    1.3509 C   0  0  0  0  0  0  0  0  0  0  0  0
    4.2263   -1.4830    2.3568 H   0  0  0  0  0  0  0  0  0  0  0  0
    3.7475    0.2173    2.5388 H   0  0  0  0  0  0  0  0  0  0  0  0
    5.7605    0.3924    1.1717 H   0  0  0  0  0  0  0  0  0  0  0  0
    5.2775   -1.0167    0.2056 H   0  0  0  0  0  0  0  0  0  0  0  0
    2.6277   -1.8221    0.5610 H   0  0  0  0  0  0  0  0  0  0  0  0
    1.7303   -0.6775    1.5999 H   0  0  0  0  0  0  0  0  0  0  0  0
    3.9986    1.7576    0.2023 H   0  0  0  0  0  0  0  0  0  0  0  0
    4.4156    0.7364   -1.1954 H   0  0  0  0  0  0  0  0  0  0  0  0
    0.7235   -2.0203   -0.9518 H   0  0  0  0  0  0  0  0  0  0  0  0
   -1.0566    2.4250    0.9166 H   0  0  0  0  0  0  0  0  0  0  0  0
   -0.0815    2.7301   -0.5218 H   0  0  0  0  0  0  0  0  0  0  0  0
   -1.8247    2.5497   -0.6822 H   0  0  0  0  0  0  0  0  0  0  0  0
   -2.5223   -2.9666   -1.2771 H   0  0  0  0  0  0  0  0  0  0  0  0
   -1.0758   -3.6152   -0.4900 H   0  0  0  0  0  0  0  0  0  0  0  0
   -2.4138   -3.0141    0.4942 H   0  0  0  0  0  0  0  0  0  0  0  0
   -4.7758    2.2241    1.9833 H   0  0  0  0  0  0  0  0  0  0  0  0
   -5.1799    0.4932    1.9222 H   0  0  0  0  0  0  0  0  0  0  0  0
   -5.3805    1.5280    0.4627 H   0  0  0  0  0  0  0  0  0  0  0  0
  1 10  2  0  0  0  0
  2 17  1  0  0  0  0
  2 18  1  0  0  0  0
  3 17  2  0  0  0  0
  4  8  1  0  0  0  0
  4  9  1  0  0  0  0
  4 10  1  0  0  0  0
  5 11  1  0  0  0  0
  5 14  1  0  0  0  0
  5 27  1  0  0  0  0
  6  7  1  0  0  0  0
  6  8  1  0  0  0  0
  6 19  1  0  0  0  0
  6 20  1  0  0  0  0
  7  9  1  0  0  0  0
  7 21  1  0  0  0  0
  7 22  1  0  0  0  0
  8 23  1  0  0  0  0
  8 24  1  0  0  0  0
  9 25  1  0  0  0  0
  9 26  1  0  0  0  0
 10 11  1  0  0  0  0
 11 12  2  0  0  0  0
 12 13  1  0  0  0  0
 12 15  1  0  0  0  0
 13 14  2  0  0  0  0
 13 17  1  0  0  0  0
 14 16  1  0  0  0  0
 15 28  1  0  0  0  0
 15 29  1  0  0  0  0
 15 30  1  0  0  0  0
 16 31  1  0  0  0  0
 16 32  1  0  0  0  0
 16 33  1  0  0  0  0
 18 34  1  0  0  0  0
 18 35  1  0  0  0  0
 18 36  1  0  0  0  0
M  END
> <PUBCHEM_COMPOUND_CID>
17395502

> <PUBCHEM_CONFORMER_RMSD>
0.6

> <PUBCHEM_CONFORMER_DIVERSEORDER>
1
14
3
16
21
12
18
7
20
10
8
19
15
11
4
6
9
5
17
13
2

> <PUBCHEM_MMFF94_PARTIAL_CHARGES>
17
1 -0.57
10 0.71
11 -0.24
12 -0.18
13 -0.09
14 -0.33
15 0.18
16 0.18
17 0.81
18 0.28
2 -0.43
27 0.27
3 -0.57
4 -0.66
5 0.03
8 0.3
9 0.3

> <PUBCHEM_EFFECTIVE_ROTOR_COUNT>
5

> <PUBCHEM_PHARMACOPHORE_FEATURES>
6
1 1 acceptor
1 3 acceptor
1 5 cation
1 5 donor
5 4 6 7 8 9 rings
5 5 11 12 13 14 rings

> <PUBCHEM_HEAVY_ATOM_COUNT>
18

> <PUBCHEM_ATOM_DEF_STEREO_COUNT>
0

> <PUBCHEM_ATOM_UDEF_STEREO_COUNT>
0

> <PUBCHEM_BOND_DEF_STEREO_COUNT>
0

> <PUBCHEM_BOND_UDEF_STEREO_COUNT>
0

> <PUBCHEM_ISOTOPIC_ATOM_COUNT>
0

> <PUBCHEM_COMPONENT_COUNT>
1

> <PUBCHEM_CACTVS_TAUTO_COUNT>
3

> <PUBCHEM_CONFORMER_ID>
01096F2E00000001

> <PUBCHEM_MMFF94_ENERGY>
34.1199

> <PUBCHEM_FEATURE_SELFOVERLAP>
30.446

> <PUBCHEM_SHAPE_FINGERPRINT>
10062212 137 18342461387590203871
11132069 177 18261104214599137909
11725454 13 16733274546177266297
12119455 92 16081372972656020612
12236239 1 18272652325032570236
12251169 10 18412830183380893206
12553582 1 17632308873730269162
12633257 1 18261127278615560136
13140716 1 18339921493985822233
13538477 17 18269833134026654286
13675066 3 17704075087868940597
14178342 30 18261109638847856199
14252887 29 17846502573547604618
15209294 21 17967812794956575393
15375462 189 17989214728793438304
15842332 3 18057313985954766782
16945 1 18411702105619735222
17349148 13 18262809466855161711
1813 80 17489585723325933942
18186145 218 16516228722003517247
19026448 4 16008739221793204061
200 152 17775294854041014053
20510252 161 18188209908965223312
20600515 1 18187640280443430860
20645477 70 16702312208608201402
212916 134 18041002872917457715
21475661 188 16878233059830266281
22112679 90 18340487742579602734
22182313 1 18054225711422073015
22445834 79 18131079246558226138
231179 274 15502376725390994250
23402539 116 18114754750365997567
23557571 272 17458899353751633959
23559900 14 17895460510543760756
23598291 2 18129656370931908974
25147074 1 18198336256590860895
26918003 58 17060341824795406192
2748010 2 17908703178406167479
2838139 119 15285922536687888945
4072396 5 18341893056459349209
474 4 5112003989149329242
5104073 3 18339931407455994984
77492 1 18201438026258776350
90316 7 18341900705168661237
9862522 239 18197787793910723757

> <PUBCHEM_SHAPE_MULTIPOLES>
342.86
8.83
1.98
1.31
1.87
0.74
-0.22
-1.3
-4.38
-1.71
0.29
0.65
-0.24
-1.5

> <PUBCHEM_SHAPE_SELFOVERLAP>
720.696

> <PUBCHEM_SHAPE_VOLUME>
196.9

> <PUBCHEM_COORDINATE_TYPE>
2
5
10

$$$$

