854108
  -OEChem-06241222472D

 41 44  0     0  0  0  0  0  0999 V2000
   10.7224   -1.0142    0.0000 O   0  0  0  0  0  0  0  0  0  0  0  0
    7.1923   -1.0384    0.0000 O   0  0  0  0  0  0  0  0  0  0  0  0
   12.4544   -1.0142    0.0000 O   0  0  0  0  0  0  0  0  0  0  0  0
    2.8680   -2.5550    0.0000 O   0  0  0  0  0  0  0  0  0  0  0  0
    9.8564    0.4858    0.0000 C   0  0  0  0  0  0  0  0  0  0  0  0
   10.7224    0.9858    0.0000 C   0  0  0  0  0  0  0  0  0  0  0  0
    9.8564   -0.5142    0.0000 C   0  0  0  0  0  0  0  0  0  0  0  0
   11.5884    0.4858    0.0000 C   0  0  0  0  0  0  0  0  0  0  0  0
    8.9624    1.0204    0.0000 C   0  0  0  0  0  0  0  0  0  0  0  0
    8.0564   -0.5350    0.0000 C   0  0  0  0  0  0  0  0  0  0  0  0
    8.9624   -1.0489    0.0000 C   0  0  0  0  0  0  0  0  0  0  0  0
   10.7063    2.0273    0.0000 C   0  0  0  0  0  0  0  0  0  0  0  0
    8.0564    0.5066    0.0000 C   0  0  0  0  0  0  0  0  0  0  0  0
   11.5884   -0.5142    0.0000 C   0  0  0  0  0  0  0  0  0  0  0  0
   12.4984    0.9926    0.0000 C   0  0  0  0  0  0  0  0  0  0  0  0
    6.3243   -0.5417    0.0000 C   0  0  0  0  0  0  0  0  0  0  0  0
    5.4602   -1.0450    0.0000 C   0  0  0  0  0  0  0  0  0  0  0  0
   11.6044    2.5550    0.0000 C   0  0  0  0  0  0  0  0  0  0  0  0
   12.5064    2.0342    0.0000 C   0  0  0  0  0  0  0  0  0  0  0  0
    4.5923   -0.5484    0.0000 C   0  0  0  0  0  0  0  0  0  0  0  0
    5.4641   -2.0450    0.0000 C   0  0  0  0  0  0  0  0  0  0  0  0
    3.7282   -1.0517    0.0000 C   0  0  0  0  0  0  0  0  0  0  0  0
    4.6000   -2.5484    0.0000 C   0  0  0  0  0  0  0  0  0  0  0  0
    3.7320   -2.0517    0.0000 C   0  0  0  0  0  0  0  0  0  0  0  0
    2.0000   -2.0584    0.0000 C   0  0  0  0  0  0  0  0  0  0  0  0
    8.9696    1.6404    0.0000 H   0  0  0  0  0  0  0  0  0  0  0  0
    8.9696   -1.6688    0.0000 H   0  0  0  0  0  0  0  0  0  0  0  0
   10.1658    2.3311    0.0000 H   0  0  0  0  0  0  0  0  0  0  0  0
    7.5206    0.8187    0.0000 H   0  0  0  0  0  0  0  0  0  0  0  0
   13.0317    0.6764    0.0000 H   0  0  0  0  0  0  0  0  0  0  0  0
    6.7210   -0.0652    0.0000 H   0  0  0  0  0  0  0  0  0  0  0  0
    5.9240   -0.0683    0.0000 H   0  0  0  0  0  0  0  0  0  0  0  0
   11.6020    3.1750    0.0000 H   0  0  0  0  0  0  0  0  0  0  0  0
   13.0446    2.3422    0.0000 H   0  0  0  0  0  0  0  0  0  0  0  0
    4.5899    0.0716    0.0000 H   0  0  0  0  0  0  0  0  0  0  0  0
    6.0022   -2.3530    0.0000 H   0  0  0  0  0  0  0  0  0  0  0  0
    3.1901   -0.7438    0.0000 H   0  0  0  0  0  0  0  0  0  0  0  0
    4.6024   -3.1684    0.0000 H   0  0  0  0  0  0  0  0  0  0  0  0
    2.3079   -1.5203    0.0000 H   0  0  0  0  0  0  0  0  0  0  0  0
    1.4619   -1.7505    0.0000 H   0  0  0  0  0  0  0  0  0  0  0  0
    1.6921   -2.5965    0.0000 H   0  0  0  0  0  0  0  0  0  0  0  0
  1  7  1  0  0  0  0
  1 14  1  0  0  0  0
  2 10  1  0  0  0  0
  2 16  1  0  0  0  0
  3 14  2  0  0  0  0
  4 24  1  0  0  0  0
  4 25  1  0  0  0  0
  5  6  1  0  0  0  0
  5  7  2  0  0  0  0
  5  9  1  0  0  0  0
  6  8  1  0  0  0  0
  6 12  2  0  0  0  0
  7 11  1  0  0  0  0
  8 14  1  0  0  0  0
  8 15  2  0  0  0  0
  9 13  2  0  0  0  0
  9 26  1  0  0  0  0
 10 11  2  0  0  0  0
 10 13  1  0  0  0  0
 11 27  1  0  0  0  0
 12 18  1  0  0  0  0
 12 28  1  0  0  0  0
 13 29  1  0  0  0  0
 15 19  1  0  0  0  0
 15 30  1  0  0  0  0
 16 17  1  0  0  0  0
 16 31  1  0  0  0  0
 16 32  1  0  0  0  0
 17 20  2  0  0  0  0
 17 21  1  0  0  0  0
 18 19  2  0  0  0  0
 18 33  1  0  0  0  0
 19 34  1  0  0  0  0
 20 22  1  0  0  0  0
 20 35  1  0  0  0  0
 21 23  2  0  0  0  0
 21 36  1  0  0  0  0
 22 24  2  0  0  0  0
 22 37  1  0  0  0  0
 23 24  1  0  0  0  0
 23 38  1  0  0  0  0
 25 39  1  0  0  0  0
 25 40  1  0  0  0  0
 25 41  1  0  0  0  0
M  END
> <PUBCHEM_COMPOUND_CID>
854108

> <PUBCHEM_COMPOUND_CANONICALIZED>
1

> <PUBCHEM_CACTVS_COMPLEXITY>
457

> <PUBCHEM_CACTVS_HBOND_ACCEPTOR>
4

> <PUBCHEM_CACTVS_HBOND_DONOR>
0

> <PUBCHEM_CACTVS_ROTATABLE_BOND>
4

> <PUBCHEM_CACTVS_SUBSKEYS>
AAADceB4OAAAAAAAAAAAAAAAAAAAAAAAAAA0YMEAAAAAAACRUAAAGgAAAAAADASgmAIyDoAABACIAiDSCAACCAAkIAAIiAEGCMgMJzKENRqCOyClwBUIqYeI7PzOoAAACAAYAABAAAAQADAAAAAAAAAAAA==

> <PUBCHEM_IUPAC_OPENEYE_NAME>
3-[(4-methoxyphenyl)methoxy]benzo[c]chromen-6-one

> <PUBCHEM_IUPAC_CAS_NAME>
3-[(4-methoxyphenyl)methoxy]-6-benzo[c][1]benzopyranone

> <PUBCHEM_IUPAC_NAME>
3-[(4-methoxyphenyl)methoxy]benzo[c]chromen-6-one

> <PUBCHEM_IUPAC_SYSTEMATIC_NAME>
3-[(4-methoxyphenyl)methoxy]benzo[c]chromen-6-one

> <PUBCHEM_IUPAC_TRADITIONAL_NAME>
3-p-anisyloxybenzo[c]chromen-6-one

> <PUBCHEM_IUPAC_INCHI>
InChI=1S/C21H16O4/c1-23-15-8-6-14(7-9-15)13-24-16-10-11-18-17-4-2-3-5-19(17)21(22)25-20(18)12-16/h2-12H,13H2,1H3

> <PUBCHEM_IUPAC_INCHIKEY>
PEOPXQPKSGPAES-UHFFFAOYSA-N

> <PUBCHEM_XLOGP3_AA>
4.5

> <PUBCHEM_EXACT_MASS>
332.104859

> <PUBCHEM_MOLECULAR_FORMULA>
C21H16O4

> <PUBCHEM_MOLECULAR_WEIGHT>
332.34934

> <PUBCHEM_OPENEYE_CAN_SMILES>
COC1=CC=C(C=C1)COC2=CC3=C(C=C2)C4=CC=CC=C4C(=O)O3

> <PUBCHEM_OPENEYE_ISO_SMILES>
COC1=CC=C(C=C1)COC2=CC3=C(C=C2)C4=CC=CC=C4C(=O)O3

> <PUBCHEM_CACTVS_TPSA>
44.8

> <PUBCHEM_MONOISOTOPIC_WEIGHT>
332.104859

> <PUBCHEM_TOTAL_CHARGE>
0

> <PUBCHEM_HEAVY_ATOM_COUNT>
25

> <PUBCHEM_ATOM_DEF_STEREO_COUNT>
0

> <PUBCHEM_ATOM_UDEF_STEREO_COUNT>
0

> <PUBCHEM_BOND_DEF_STEREO_COUNT>
0

> <PUBCHEM_BOND_UDEF_STEREO_COUNT>
0

> <PUBCHEM_ISOTOPIC_ATOM_COUNT>
0

> <PUBCHEM_COMPONENT_COUNT>
1

> <PUBCHEM_CACTVS_TAUTO_COUNT>
1

> <PUBCHEM_COORDINATE_TYPE>
1
5
255

> <PUBCHEM_BONDANNOTATIONS>
1  14  8
1  7  8
10  11  8
10  13  8
12  18  8
15  19  8
17  20  8
17  21  8
18  19  8
20  22  8
21  23  8
22  24  8
23  24  8
5  6  8
5  7  8
5  9  8
6  12  8
6  8  8
7  11  8
8  14  8
8  15  8
9  13  8

$$$$

