5005
  -OEChem-06261200282D

 62 64  0     1  0  0  0  0  0999 V2000
    3.7320    1.8450    0.0000 O   0  0  0  0  0  0  0  0  0  0  0  0
    4.5981    4.3450    0.0000 O   0  0  0  0  0  0  0  0  0  0  0  0
    3.7320    2.8450    0.0000 O   0  0  0  0  0  0  0  0  0  0  0  0
    2.8660   -2.6550    0.0000 O   0  0  0  0  0  0  0  0  0  0  0  0
    2.0000   -1.1550    0.0000 O   0  0  0  0  0  0  0  0  0  0  0  0
    5.4641    1.8450    0.0000 N   0  0  0  0  0  0  0  0  0  0  0  0
    3.7320   -0.1550    0.0000 N   0  0  0  0  0  0  0  0  0  0  0  0
    5.4641    2.8450    0.0000 C   0  0  3  0  0  0  0  0  0  0  0  0
    6.3301    3.3450    0.0000 C   0  0  0  0  0  0  0  0  0  0  0  0
    6.3301    1.3450    0.0000 C   0  0  0  0  0  0  0  0  0  0  0  0
    7.1962    2.8450    0.0000 C   0  0  0  0  0  0  0  0  0  0  0  0
    7.1962    1.8450    0.0000 C   0  0  0  0  0  0  0  0  0  0  0  0
    4.5981    0.3450    0.0000 C   0  0  3  0  0  0  0  0  0  0  0  0
    4.5981    1.3450    0.0000 C   0  0  0  0  0  0  0  0  0  0  0  0
    3.7320   -1.1550    0.0000 C   0  0  3  0  0  0  0  0  0  0  0  0
    4.5981    3.3450    0.0000 C   0  0  0  0  0  0  0  0  0  0  0  0
    4.5981   -1.6550    0.0000 C   0  0  0  0  0  0  0  0  0  0  0  0
    8.0901    3.3797    0.0000 C   0  0  0  0  0  0  0  0  0  0  0  0
    8.0901    1.3103    0.0000 C   0  0  0  0  0  0  0  0  0  0  0  0
    5.4641   -0.1550    0.0000 C   0  0  0  0  0  0  0  0  0  0  0  0
    4.5981   -2.6550    0.0000 C   0  0  0  0  0  0  0  0  0  0  0  0
    8.9962    2.8658    0.0000 C   0  0  0  0  0  0  0  0  0  0  0  0
    8.9962    1.8242    0.0000 C   0  0  0  0  0  0  0  0  0  0  0  0
    2.8660   -1.6550    0.0000 C   0  0  0  0  0  0  0  0  0  0  0  0
    5.4641   -3.1550    0.0000 C   0  0  0  0  0  0  0  0  0  0  0  0
    5.4641   -4.1550    0.0000 C   0  0  0  0  0  0  0  0  0  0  0  0
    6.3301   -2.6550    0.0000 C   0  0  0  0  0  0  0  0  0  0  0  0
    2.0000   -3.1550    0.0000 C   0  0  0  0  0  0  0  0  0  0  0  0
    6.3301   -4.6550    0.0000 C   0  0  0  0  0  0  0  0  0  0  0  0
    7.1962   -3.1550    0.0000 C   0  0  0  0  0  0  0  0  0  0  0  0
    7.1962   -4.1550    0.0000 C   0  0  0  0  0  0  0  0  0  0  0  0
    2.0000   -4.1550    0.0000 C   0  0  0  0  0  0  0  0  0  0  0  0
    4.9272    2.5350    0.0000 H   0  0  0  0  0  0  0  0  0  0  0  0
    6.7287    3.8200    0.0000 H   0  0  0  0  0  0  0  0  0  0  0  0
    5.9316    3.8200    0.0000 H   0  0  0  0  0  0  0  0  0  0  0  0
    5.9316    0.8701    0.0000 H   0  0  0  0  0  0  0  0  0  0  0  0
    6.7287    0.8701    0.0000 H   0  0  0  0  0  0  0  0  0  0  0  0
    4.5981   -0.2750    0.0000 H   0  0  0  0  0  0  0  0  0  0  0  0
    4.2690   -0.8450    0.0000 H   0  0  0  0  0  0  0  0  0  0  0  0
    3.1951    0.1550    0.0000 H   0  0  0  0  0  0  0  0  0  0  0  0
    5.2087   -1.7627    0.0000 H   0  0  0  0  0  0  0  0  0  0  0  0
    4.8101   -1.0724    0.0000 H   0  0  0  0  0  0  0  0  0  0  0  0
    8.0829    3.9996    0.0000 H   0  0  0  0  0  0  0  0  0  0  0  0
    8.0829    0.6904    0.0000 H   0  0  0  0  0  0  0  0  0  0  0  0
    5.1541   -0.6919    0.0000 H   0  0  0  0  0  0  0  0  0  0  0  0
    6.0010   -0.4650    0.0000 H   0  0  0  0  0  0  0  0  0  0  0  0
    5.7741    0.3819    0.0000 H   0  0  0  0  0  0  0  0  0  0  0  0
    3.9875   -2.5473    0.0000 H   0  0  0  0  0  0  0  0  0  0  0  0
    4.3860   -3.2376    0.0000 H   0  0  0  0  0  0  0  0  0  0  0  0
    9.5319    3.1779    0.0000 H   0  0  0  0  0  0  0  0  0  0  0  0
    9.5319    1.5121    0.0000 H   0  0  0  0  0  0  0  0  0  0  0  0
    4.0611    4.6550    0.0000 H   0  0  0  0  0  0  0  0  0  0  0  0
    4.9272   -4.4650    0.0000 H   0  0  0  0  0  0  0  0  0  0  0  0
    6.3301   -2.0350    0.0000 H   0  0  0  0  0  0  0  0  0  0  0  0
    1.7880   -2.5724    0.0000 H   0  0  0  0  0  0  0  0  0  0  0  0
    1.3894   -3.2627    0.0000 H   0  0  0  0  0  0  0  0  0  0  0  0
    6.3301   -5.2750    0.0000 H   0  0  0  0  0  0  0  0  0  0  0  0
    7.7331   -2.8450    0.0000 H   0  0  0  0  0  0  0  0  0  0  0  0
    7.7331   -4.4650    0.0000 H   0  0  0  0  0  0  0  0  0  0  0  0
    1.3800   -4.1550    0.0000 H   0  0  0  0  0  0  0  0  0  0  0  0
    2.0000   -4.7750    0.0000 H   0  0  0  0  0  0  0  0  0  0  0  0
    2.6200   -4.1550    0.0000 H   0  0  0  0  0  0  0  0  0  0  0  0
  1 14  2  0  0  0  0
  2 16  1  0  0  0  0
  2 52  1  0  0  0  0
  3 16  2  0  0  0  0
  4 24  1  0  0  0  0
  4 28  1  0  0  0  0
  5 24  2  0  0  0  0
  6  8  1  0  0  0  0
  6 10  1  0  0  0  0
  6 14  1  0  0  0  0
  7 13  1  0  0  0  0
  7 15  1  0  0  0  0
  7 40  1  0  0  0  0
  8  9  1  0  0  0  0
  8 16  1  0  0  0  0
  8 33  1  0  0  0  0
  9 11  1  0  0  0  0
  9 34  1  0  0  0  0
  9 35  1  0  0  0  0
 10 12  1  0  0  0  0
 10 36  1  0  0  0  0
 10 37  1  0  0  0  0
 11 12  1  0  0  0  0
 11 18  2  0  0  0  0
 12 19  2  0  0  0  0
 13 14  1  0  0  0  0
 13 20  1  0  0  0  0
 13 38  1  0  0  0  0
 15 17  1  0  0  0  0
 15 24  1  0  0  0  0
 15 39  1  0  0  0  0
 17 21  1  0  0  0  0
 17 41  1  0  0  0  0
 17 42  1  0  0  0  0
 18 22  1  0  0  0  0
 18 43  1  0  0  0  0
 19 23  1  0  0  0  0
 19 44  1  0  0  0  0
 20 45  1  0  0  0  0
 20 46  1  0  0  0  0
 20 47  1  0  0  0  0
 21 25  1  0  0  0  0
 21 48  1  0  0  0  0
 21 49  1  0  0  0  0
 22 23  2  0  0  0  0
 22 50  1  0  0  0  0
 23 51  1  0  0  0  0
 25 26  2  0  0  0  0
 25 27  1  0  0  0  0
 26 29  1  0  0  0  0
 26 53  1  0  0  0  0
 27 30  2  0  0  0  0
 27 54  1  0  0  0  0
 28 32  1  0  0  0  0
 28 55  1  0  0  0  0
 28 56  1  0  0  0  0
 29 31  2  0  0  0  0
 29 57  1  0  0  0  0
 30 31  1  0  0  0  0
 30 58  1  0  0  0  0
 31 59  1  0  0  0  0
 32 60  1  0  0  0  0
 32 61  1  0  0  0  0
 32 62  1  0  0  0  0
M  END
> <PUBCHEM_COMPOUND_CID>
5005

> <PUBCHEM_COMPOUND_CANONICALIZED>
1

> <PUBCHEM_CACTVS_COMPLEXITY>
648

> <PUBCHEM_CACTVS_HBOND_ACCEPTOR>
6

> <PUBCHEM_CACTVS_HBOND_DONOR>
2

> <PUBCHEM_CACTVS_ROTATABLE_BOND>
10

> <PUBCHEM_CACTVS_SUBSKEYS>
AAADceB7OAAAAAAAAAAAAAAAAAAAAAAAAAA8YIAAAAAAAACxQAAAHgAQCAAADCjhmAYyCIPABgCIAiHSGACCAAAgAAAIiIGIBIgKYDKAkTGXYAhklgCYiAeYyLCOgAAAAAAQAAAAAAAAACAAAAAAAAAAAA==

> <PUBCHEM_IUPAC_OPENEYE_NAME>
2-[2-[(1-ethoxycarbonyl-3-phenyl-propyl)amino]propanoyl]-3,4-dihydro-1H-isoquinoline-3-carboxylic acid

> <PUBCHEM_IUPAC_CAS_NAME>
2-[2-[(1-ethoxy-1-oxo-4-phenylbutan-2-yl)amino]-1-oxopropyl]-3,4-dihydro-1H-isoquinoline-3-carboxylic acid

> <PUBCHEM_IUPAC_NAME>
2-[2-[(1-ethoxy-1-oxo-4-phenylbutan-2-yl)amino]propanoyl]-3,4-dihydro-1H-isoquinoline-3-carboxylic acid

> <PUBCHEM_IUPAC_SYSTEMATIC_NAME>
2-[2-[(1-ethoxy-1-oxidanylidene-4-phenyl-butan-2-yl)amino]propanoyl]-3,4-dihydro-1H-isoquinoline-3-carboxylic acid

> <PUBCHEM_IUPAC_TRADITIONAL_NAME>
2-[2-[(1-carbethoxy-3-phenyl-propyl)amino]propanoyl]-3,4-dihydro-1H-isoquinoline-3-carboxylic acid

> <PUBCHEM_IUPAC_INCHI>
InChI=1S/C25H30N2O5/c1-3-32-25(31)21(14-13-18-9-5-4-6-10-18)26-17(2)23(28)27-16-20-12-8-7-11-19(20)15-22(27)24(29)30/h4-12,17,21-22,26H,3,13-16H2,1-2H3,(H,29,30)

> <PUBCHEM_IUPAC_INCHIKEY>
JSDRRTOADPPCHY-UHFFFAOYSA-N

> <PUBCHEM_XLOGP3_AA>
1.2

> <PUBCHEM_EXACT_MASS>
438.215472

> <PUBCHEM_MOLECULAR_FORMULA>
C25H30N2O5

> <PUBCHEM_MOLECULAR_WEIGHT>
438.5161

> <PUBCHEM_OPENEYE_CAN_SMILES>
CCOC(=O)C(CCC1=CC=CC=C1)NC(C)C(=O)N2CC3=CC=CC=C3CC2C(=O)O

> <PUBCHEM_OPENEYE_ISO_SMILES>
CCOC(=O)C(CCC1=CC=CC=C1)NC(C)C(=O)N2CC3=CC=CC=C3CC2C(=O)O

> <PUBCHEM_CACTVS_TPSA>
95.9

> <PUBCHEM_MONOISOTOPIC_WEIGHT>
438.215472

> <PUBCHEM_TOTAL_CHARGE>
0

> <PUBCHEM_HEAVY_ATOM_COUNT>
32

> <PUBCHEM_ATOM_DEF_STEREO_COUNT>
0

> <PUBCHEM_ATOM_UDEF_STEREO_COUNT>
3

> <PUBCHEM_BOND_DEF_STEREO_COUNT>
0

> <PUBCHEM_BOND_UDEF_STEREO_COUNT>
0

> <PUBCHEM_ISOTOPIC_ATOM_COUNT>
0

> <PUBCHEM_COMPONENT_COUNT>
1

> <PUBCHEM_CACTVS_TAUTO_COUNT>
1

> <PUBCHEM_COORDINATE_TYPE>
1
5
255

> <PUBCHEM_BONDANNOTATIONS>
11  12  8
11  18  8
12  19  8
13  20  3
15  17  3
18  22  8
19  23  8
22  23  8
25  26  8
25  27  8
26  29  8
27  30  8
29  31  8
30  31  8
8  16  3

$$$$

