583277
  -OEChem-06241222452D

 29 28  0     1  0  0  0  0  0999 V2000
    6.0010    0.7500    0.0000 O   0  0  0  0  0  0  0  0  0  0  0  0
    2.5369    0.7500    0.0000 O   0  0  0  0  0  0  0  0  0  0  0  0
    5.1350    2.2500    0.0000 O   0  0  0  0  0  0  0  0  0  0  0  0
    3.4030    2.2500    0.0000 O   0  0  0  0  0  0  0  0  0  0  0  0
    4.2690   -0.2500    0.0000 C   0  0  0  0  0  0  0  0  0  0  0  0
    3.4030   -0.7500    0.0000 C   0  0  0  0  0  0  0  0  0  0  0  0
    4.2690    0.7500    0.0000 C   0  0  3  0  0  0  0  0  0  0  0  0
    3.4030   -1.7500    0.0000 C   0  0  0  0  0  0  0  0  0  0  0  0
    5.1350    1.2500    0.0000 C   0  0  0  0  0  0  0  0  0  0  0  0
    2.5369   -2.2500    0.0000 C   0  0  0  0  0  0  0  0  0  0  0  0
    3.4030    1.2500    0.0000 C   0  0  0  0  0  0  0  0  0  0  0  0
    6.8671    1.2500    0.0000 C   0  0  0  0  0  0  0  0  0  0  0  0
    7.7331    0.7500    0.0000 C   0  0  0  0  0  0  0  0  0  0  0  0
    4.4810   -0.8326    0.0000 H   0  0  0  0  0  0  0  0  0  0  0  0
    4.8796   -0.1423    0.0000 H   0  0  0  0  0  0  0  0  0  0  0  0
    3.1909   -0.1674    0.0000 H   0  0  0  0  0  0  0  0  0  0  0  0
    2.7924   -0.8577    0.0000 H   0  0  0  0  0  0  0  0  0  0  0  0
    4.2690    1.3700    0.0000 H   0  0  0  0  0  0  0  0  0  0  0  0
    3.6150   -2.3326    0.0000 H   0  0  0  0  0  0  0  0  0  0  0  0
    4.0135   -1.6423    0.0000 H   0  0  0  0  0  0  0  0  0  0  0  0
    2.2269   -1.7131    0.0000 H   0  0  0  0  0  0  0  0  0  0  0  0
    2.0000   -2.5600    0.0000 H   0  0  0  0  0  0  0  0  0  0  0  0
    2.8469   -2.7869    0.0000 H   0  0  0  0  0  0  0  0  0  0  0  0
    7.2656    1.7250    0.0000 H   0  0  0  0  0  0  0  0  0  0  0  0
    6.4685    1.7250    0.0000 H   0  0  0  0  0  0  0  0  0  0  0  0
    7.4231    0.2131    0.0000 H   0  0  0  0  0  0  0  0  0  0  0  0
    8.2700    0.4400    0.0000 H   0  0  0  0  0  0  0  0  0  0  0  0
    8.0431    1.2869    0.0000 H   0  0  0  0  0  0  0  0  0  0  0  0
    2.0000    1.0600    0.0000 H   0  0  0  0  0  0  0  0  0  0  0  0
  1  9  1  0  0  0  0
  1 12  1  0  0  0  0
  2 11  1  0  0  0  0
  2 29  1  0  0  0  0
  3  9  2  0  0  0  0
  4 11  2  0  0  0  0
  5  6  1  0  0  0  0
  5  7  1  0  0  0  0
  5 14  1  0  0  0  0
  5 15  1  0  0  0  0
  6  8  1  0  0  0  0
  6 16  1  0  0  0  0
  6 17  1  0  0  0  0
  7  9  1  0  0  0  0
  7 11  1  0  0  0  0
  7 18  1  0  0  0  0
  8 10  1  0  0  0  0
  8 19  1  0  0  0  0
  8 20  1  0  0  0  0
 10 21  1  0  0  0  0
 10 22  1  0  0  0  0
 10 23  1  0  0  0  0
 12 13  1  0  0  0  0
 12 24  1  0  0  0  0
 12 25  1  0  0  0  0
 13 26  1  0  0  0  0
 13 27  1  0  0  0  0
 13 28  1  0  0  0  0
M  END
> <PUBCHEM_COMPOUND_CID>
583277

> <PUBCHEM_COMPOUND_CANONICALIZED>
1

> <PUBCHEM_CACTVS_COMPLEXITY>
177

> <PUBCHEM_CACTVS_HBOND_ACCEPTOR>
4

> <PUBCHEM_CACTVS_HBOND_DONOR>
1

> <PUBCHEM_CACTVS_ROTATABLE_BOND>
7

> <PUBCHEM_CACTVS_SUBSKEYS>
AAADceBwOAAAAAAAAAAAAAAAAAAAAAAAAAAAAAAAAAAAAAAAAAAAGgAACAAADQCggAICCAAABgAIAACQCAAAAAAAAAAAAAEAAAAAABYIAAACQAAFIAAAAAGISAAMAAAAAAAAAAAAAAAAAAAAAAAAAAAAAA==

> <PUBCHEM_IUPAC_OPENEYE_NAME>
2-ethoxycarbonylhexanoic acid

> <PUBCHEM_IUPAC_CAS_NAME>
2-ethoxycarbonylhexanoic acid

> <PUBCHEM_IUPAC_NAME>
2-ethoxycarbonylhexanoic acid

> <PUBCHEM_IUPAC_SYSTEMATIC_NAME>
2-ethoxycarbonylhexanoic acid

> <PUBCHEM_IUPAC_TRADITIONAL_NAME>
2-carbethoxyhexanoic acid

> <PUBCHEM_IUPAC_INCHI>
InChI=1S/C9H16O4/c1-3-5-6-7(8(10)11)9(12)13-4-2/h7H,3-6H2,1-2H3,(H,10,11)

> <PUBCHEM_IUPAC_INCHIKEY>
IGGGSAHINVSGTM-UHFFFAOYSA-N

> <PUBCHEM_XLOGP3_AA>
2.2

> <PUBCHEM_EXACT_MASS>
188.104859

> <PUBCHEM_MOLECULAR_FORMULA>
C9H16O4

> <PUBCHEM_MOLECULAR_WEIGHT>
188.22094

> <PUBCHEM_OPENEYE_CAN_SMILES>
CCCCC(C(=O)O)C(=O)OCC

> <PUBCHEM_OPENEYE_ISO_SMILES>
CCCCC(C(=O)O)C(=O)OCC

> <PUBCHEM_CACTVS_TPSA>
63.6

> <PUBCHEM_MONOISOTOPIC_WEIGHT>
188.104859

> <PUBCHEM_TOTAL_CHARGE>
0

> <PUBCHEM_HEAVY_ATOM_COUNT>
13

> <PUBCHEM_ATOM_DEF_STEREO_COUNT>
0

> <PUBCHEM_ATOM_UDEF_STEREO_COUNT>
1

> <PUBCHEM_BOND_DEF_STEREO_COUNT>
0

> <PUBCHEM_BOND_UDEF_STEREO_COUNT>
0

> <PUBCHEM_ISOTOPIC_ATOM_COUNT>
0

> <PUBCHEM_COMPONENT_COUNT>
1

> <PUBCHEM_CACTVS_TAUTO_COUNT>
1

> <PUBCHEM_COORDINATE_TYPE>
1
5
255

> <PUBCHEM_BONDANNOTATIONS>
7  5  3

$$$$

