17395441
  -OEChem-06241222502D

 38 38  0     0  0  0  0  0  0999 V2000
    2.0000   -1.6830    0.0000 Cl  0  0  0  0  0  0  0  0  0  0  0  0
    5.4641   -3.6830    0.0000 Cl  0  0  0  0  0  0  0  0  0  0  0  0
    6.3301    0.8170    0.0000 O   0  0  0  0  0  0  0  0  0  0  0  0
    2.8660   -0.1830    0.0000 O   0  0  0  0  0  0  0  0  0  0  0  0
    5.4641    2.3170    0.0000 N   0  0  0  0  0  0  0  0  0  0  0  0
    4.5981   -0.1830    0.0000 N   0  0  0  0  0  0  0  0  0  0  0  0
    6.3301    2.8170    0.0000 C   0  0  0  0  0  0  0  0  0  0  0  0
    7.1962    3.3170    0.0000 C   0  0  0  0  0  0  0  0  0  0  0  0
    5.8301    3.6830    0.0000 C   0  0  0  0  0  0  0  0  0  0  0  0
    6.8301    1.9510    0.0000 C   0  0  0  0  0  0  0  0  0  0  0  0
    5.4641    1.3170    0.0000 C   0  0  0  0  0  0  0  0  0  0  0  0
    4.5981    0.8170    0.0000 C   0  0  0  0  0  0  0  0  0  0  0  0
    3.7320   -0.6830    0.0000 C   0  0  0  0  0  0  0  0  0  0  0  0
    5.4641   -0.6830    0.0000 C   0  0  0  0  0  0  0  0  0  0  0  0
    3.7320   -1.6830    0.0000 C   0  0  0  0  0  0  0  0  0  0  0  0
    2.8660   -2.1830    0.0000 C   0  0  0  0  0  0  0  0  0  0  0  0
    4.5981   -2.1830    0.0000 C   0  0  0  0  0  0  0  0  0  0  0  0
    4.5981   -3.1830    0.0000 C   0  0  0  0  0  0  0  0  0  0  0  0
    2.8660   -3.1830    0.0000 C   0  0  0  0  0  0  0  0  0  0  0  0
    3.7320   -3.6830    0.0000 C   0  0  0  0  0  0  0  0  0  0  0  0
    4.9272    2.6270    0.0000 H   0  0  0  0  0  0  0  0  0  0  0  0
    6.2932    1.6410    0.0000 H   0  0  0  0  0  0  0  0  0  0  0  0
    7.5062    2.7800    0.0000 H   0  0  0  0  0  0  0  0  0  0  0  0
    7.7331    3.6270    0.0000 H   0  0  0  0  0  0  0  0  0  0  0  0
    6.8862    3.8539    0.0000 H   0  0  0  0  0  0  0  0  0  0  0  0
    6.3671    3.9930    0.0000 H   0  0  0  0  0  0  0  0  0  0  0  0
    5.5201    4.2200    0.0000 H   0  0  0  0  0  0  0  0  0  0  0  0
    5.2932    3.3730    0.0000 H   0  0  0  0  0  0  0  0  0  0  0  0
    7.1401    1.4140    0.0000 H   0  0  0  0  0  0  0  0  0  0  0  0
    7.3671    2.2610    0.0000 H   0  0  0  0  0  0  0  0  0  0  0  0
    4.3860    1.3996    0.0000 H   0  0  0  0  0  0  0  0  0  0  0  0
    3.9875    0.7093    0.0000 H   0  0  0  0  0  0  0  0  0  0  0  0
    5.1541   -1.2200    0.0000 H   0  0  0  0  0  0  0  0  0  0  0  0
    6.0010   -0.9930    0.0000 H   0  0  0  0  0  0  0  0  0  0  0  0
    5.7741   -0.1461    0.0000 H   0  0  0  0  0  0  0  0  0  0  0  0
    5.1350   -1.8730    0.0000 H   0  0  0  0  0  0  0  0  0  0  0  0
    2.3291   -3.4930    0.0000 H   0  0  0  0  0  0  0  0  0  0  0  0
    3.7320   -4.3030    0.0000 H   0  0  0  0  0  0  0  0  0  0  0  0
  1 16  1  0  0  0  0
  2 18  1  0  0  0  0
  3 11  2  0  0  0  0
  4 13  2  0  0  0  0
  5  7  1  0  0  0  0
  5 11  1  0  0  0  0
  5 21  1  0  0  0  0
  6 12  1  0  0  0  0
  6 13  1  0  0  0  0
  6 14  1  0  0  0  0
  7  8  1  0  0  0  0
  7  9  1  0  0  0  0
  7 10  1  0  0  0  0
  8 23  1  0  0  0  0
  8 24  1  0  0  0  0
  8 25  1  0  0  0  0
  9 26  1  0  0  0  0
  9 27  1  0  0  0  0
  9 28  1  0  0  0  0
 10 22  1  0  0  0  0
 10 29  1  0  0  0  0
 10 30  1  0  0  0  0
 11 12  1  0  0  0  0
 12 31  1  0  0  0  0
 12 32  1  0  0  0  0
 13 15  1  0  0  0  0
 14 33  1  0  0  0  0
 14 34  1  0  0  0  0
 14 35  1  0  0  0  0
 15 16  2  0  0  0  0
 15 17  1  0  0  0  0
 16 19  1  0  0  0  0
 17 18  2  0  0  0  0
 17 36  1  0  0  0  0
 18 20  1  0  0  0  0
 19 20  2  0  0  0  0
 19 37  1  0  0  0  0
 20 38  1  0  0  0  0
M  END
> <PUBCHEM_COMPOUND_CID>
17395441

> <PUBCHEM_COMPOUND_CANONICALIZED>
1

> <PUBCHEM_CACTVS_COMPLEXITY>
369

> <PUBCHEM_CACTVS_HBOND_ACCEPTOR>
2

> <PUBCHEM_CACTVS_HBOND_DONOR>
1

> <PUBCHEM_CACTVS_ROTATABLE_BOND>
4

> <PUBCHEM_CACTVS_SUBSKEYS>
AAADceBzMAAGAAAAAAAAAAAAAAAAAAAAAAAwAAAAAAAAAAABAAAAHgIQAAAADIrBmCQyAIPAAACIAiFSEACCAAAkBQAIiAGIBsgIYDKBlzGUIQhglgCIjYcYiACOAAAQIAABAAAAACBAAAIAAAAAAAAAAA==

> <PUBCHEM_IUPAC_OPENEYE_NAME>
N-[2-(tert-butylamino)-2-oxo-ethyl]-2,5-dichloro-N-methyl-benzamide

> <PUBCHEM_IUPAC_CAS_NAME>
N-[2-(tert-butylamino)-2-oxoethyl]-2,5-dichloro-N-methylbenzamide

> <PUBCHEM_IUPAC_NAME>
N-[2-(tert-butylamino)-2-oxoethyl]-2,5-dichloro-N-methylbenzamide

> <PUBCHEM_IUPAC_SYSTEMATIC_NAME>
N-[2-(tert-butylamino)-2-oxidanylidene-ethyl]-2,5-bis(chloranyl)-N-methyl-benzamide

> <PUBCHEM_IUPAC_TRADITIONAL_NAME>
N-[2-(tert-butylamino)-2-keto-ethyl]-2,5-dichloro-N-methyl-benzamide

> <PUBCHEM_IUPAC_INCHI>
InChI=1S/C14H18Cl2N2O2/c1-14(2,3)17-12(19)8-18(4)13(20)10-7-9(15)5-6-11(10)16/h5-7H,8H2,1-4H3,(H,17,19)

> <PUBCHEM_IUPAC_INCHIKEY>
XBCJZTIYMNWSNJ-UHFFFAOYSA-N

> <PUBCHEM_XLOGP3_AA>
3

> <PUBCHEM_EXACT_MASS>
316.074533

> <PUBCHEM_MOLECULAR_FORMULA>
C14H18Cl2N2O2

> <PUBCHEM_MOLECULAR_WEIGHT>
317.21092

> <PUBCHEM_OPENEYE_CAN_SMILES>
CC(C)(C)NC(=O)CN(C)C(=O)C1=C(C=CC(=C1)Cl)Cl

> <PUBCHEM_OPENEYE_ISO_SMILES>
CC(C)(C)NC(=O)CN(C)C(=O)C1=C(C=CC(=C1)Cl)Cl

> <PUBCHEM_CACTVS_TPSA>
49.4

> <PUBCHEM_MONOISOTOPIC_WEIGHT>
316.074533

> <PUBCHEM_TOTAL_CHARGE>
0

> <PUBCHEM_HEAVY_ATOM_COUNT>
20

> <PUBCHEM_ATOM_DEF_STEREO_COUNT>
0

> <PUBCHEM_ATOM_UDEF_STEREO_COUNT>
0

> <PUBCHEM_BOND_DEF_STEREO_COUNT>
0

> <PUBCHEM_BOND_UDEF_STEREO_COUNT>
0

> <PUBCHEM_ISOTOPIC_ATOM_COUNT>
0

> <PUBCHEM_COMPONENT_COUNT>
1

> <PUBCHEM_CACTVS_TAUTO_COUNT>
2

> <PUBCHEM_COORDINATE_TYPE>
1
5
255

> <PUBCHEM_BONDANNOTATIONS>
15  16  8
15  17  8
16  19  8
17  18  8
18  20  8
19  20  8

$$$$

