17395424
  -OEChem-06241222503D

 39 41  0     0  0  0  0  0  0999 V2000
   -5.8390    1.4045   -0.2738 O   0  0  0  0  0  0  0  0  0  0  0  0
    2.4982   -2.1082   -0.4061 O   0  0  0  0  0  0  0  0  0  0  0  0
   -4.3520   -1.6865    0.5710 O   0  0  0  0  0  0  0  0  0  0  0  0
   -3.3435    0.3262   -0.1075 N   0  0  0  0  0  0  0  0  0  0  0  0
    3.0297    0.1369    0.0215 N   0  0  0  0  0  0  0  0  0  0  0  0
    5.0966    1.2918    0.2570 N   0  0  0  0  0  0  0  0  0  0  0  0
    0.7348   -0.6100   -0.1674 C   0  0  0  0  0  0  0  0  0  0  0  0
   -1.9839    0.0138   -0.1283 C   0  0  0  0  0  0  0  0  0  0  0  0
   -0.1984   -1.5810    0.1958 C   0  0  0  0  0  0  0  0  0  0  0  0
    0.3086    0.6730   -0.5109 C   0  0  0  0  0  0  0  0  0  0  0  0
   -1.5578   -1.2691    0.2154 C   0  0  0  0  0  0  0  0  0  0  0  0
   -1.0508    0.9849   -0.4914 C   0  0  0  0  0  0  0  0  0  0  0  0
    2.1519   -0.9358   -0.1882 C   0  0  0  0  0  0  0  0  0  0  0  0
    4.4462    0.1282    0.0321 C   0  0  0  0  0  0  0  0  0  0  0  0
   -4.4159   -0.5106    0.2289 C   0  0  0  0  0  0  0  0  0  0  0  0
    6.4474    1.2343    0.2579 C   0  0  0  0  0  0  0  0  0  0  0  0
    5.0795   -1.0838   -0.1909 C   0  0  0  0  0  0  0  0  0  0  0  0
   -5.7635    0.1087    0.1276 C   0  0  0  0  0  0  0  0  0  0  0  0
    7.1744    0.0740    0.0454 C   0  0  0  0  0  0  0  0  0  0  0  0
    6.4699   -1.1030   -0.1825 C   0  0  0  0  0  0  0  0  0  0  0  0
   -7.0198   -0.3952    0.3723 C   0  0  0  0  0  0  0  0  0  0  0  0
    7.1705    2.5163    0.5041 C   0  0  0  0  0  0  0  0  0  0  0  0
   -7.9253    0.6588    0.1040 C   0  0  0  0  0  0  0  0  0  0  0  0
   -7.1578    1.7317   -0.2857 C   0  0  0  0  0  0  0  0  0  0  0  0
    0.1142   -2.5849    0.4719 H   0  0  0  0  0  0  0  0  0  0  0  0
    0.9935    1.4504   -0.8361 H   0  0  0  0  0  0  0  0  0  0  0  0
   -2.2170   -2.0738    0.5086 H   0  0  0  0  0  0  0  0  0  0  0  0
   -1.3701    1.9863   -0.7691 H   0  0  0  0  0  0  0  0  0  0  0  0
   -3.5762    1.2806   -0.3741 H   0  0  0  0  0  0  0  0  0  0  0  0
    2.6473    1.0544    0.2305 H   0  0  0  0  0  0  0  0  0  0  0  0
    4.6046   -2.0332   -0.3740 H   0  0  0  0  0  0  0  0  0  0  0  0
    8.2591    0.0717    0.0539 H   0  0  0  0  0  0  0  0  0  0  0  0
    7.0050   -2.0324   -0.3532 H   0  0  0  0  0  0  0  0  0  0  0  0
   -7.2588   -1.3960    0.7029 H   0  0  0  0  0  0  0  0  0  0  0  0
    7.8047    2.7662   -0.3525 H   0  0  0  0  0  0  0  0  0  0  0  0
    6.4672    3.3418    0.6556 H   0  0  0  0  0  0  0  0  0  0  0  0
    7.7942    2.4356    1.4000 H   0  0  0  0  0  0  0  0  0  0  0  0
   -9.0025    0.6391    0.1844 H   0  0  0  0  0  0  0  0  0  0  0  0
   -7.3856    2.7436   -0.5876 H   0  0  0  0  0  0  0  0  0  0  0  0
  1 18  1  0  0  0  0
  1 24  1  0  0  0  0
  2 13  2  0  0  0  0
  3 15  2  0  0  0  0
  4  8  1  0  0  0  0
  4 15  1  0  0  0  0
  4 29  1  0  0  0  0
  5 13  1  0  0  0  0
  5 14  1  0  0  0  0
  5 30  1  0  0  0  0
  6 14  1  0  0  0  0
  6 16  2  0  0  0  0
  7  9  2  0  0  0  0
  7 10  1  0  0  0  0
  7 13  1  0  0  0  0
  8 11  2  0  0  0  0
  8 12  1  0  0  0  0
  9 11  1  0  0  0  0
  9 25  1  0  0  0  0
 10 12  2  0  0  0  0
 10 26  1  0  0  0  0
 11 27  1  0  0  0  0
 12 28  1  0  0  0  0
 14 17  2  0  0  0  0
 15 18  1  0  0  0  0
 16 19  1  0  0  0  0
 16 22  1  0  0  0  0
 17 20  1  0  0  0  0
 17 31  1  0  0  0  0
 18 21  2  0  0  0  0
 19 20  2  0  0  0  0
 19 32  1  0  0  0  0
 20 33  1  0  0  0  0
 21 23  1  0  0  0  0
 21 34  1  0  0  0  0
 22 35  1  0  0  0  0
 22 36  1  0  0  0  0
 22 37  1  0  0  0  0
 23 24  2  0  0  0  0
 23 38  1  0  0  0  0
 24 39  1  0  0  0  0
M  END
> <PUBCHEM_COMPOUND_CID>
17395424

> <PUBCHEM_CONFORMER_RMSD>
0.8

> <PUBCHEM_CONFORMER_DIVERSEORDER>
2
5
7
6
8
4
3
1

> <PUBCHEM_MMFF94_PARTIAL_CHARGES>
36
1 -0.28
10 -0.15
11 -0.15
12 -0.15
13 0.54
14 0.43
15 0.71
16 0.17
17 -0.15
18 0.05
19 -0.15
2 -0.57
20 -0.15
21 -0.15
22 0.14
23 -0.15
24 -0.01
25 0.15
26 0.15
27 0.15
28 0.15
29 0.37
3 -0.57
30 0.37
31 0.15
32 0.15
33 0.15
34 0.15
38 0.15
39 0.15
4 -0.55
5 -0.55
6 -0.62
7 0.09
8 0.12
9 -0.15

> <PUBCHEM_EFFECTIVE_ROTOR_COUNT>
6

> <PUBCHEM_PHARMACOPHORE_FEATURES>
9
1 1 acceptor
1 2 acceptor
1 3 acceptor
1 4 donor
1 5 donor
1 6 acceptor
5 1 18 21 23 24 rings
6 6 14 16 17 19 20 rings
6 7 8 9 10 11 12 rings

> <PUBCHEM_HEAVY_ATOM_COUNT>
24

> <PUBCHEM_ATOM_DEF_STEREO_COUNT>
0

> <PUBCHEM_ATOM_UDEF_STEREO_COUNT>
0

> <PUBCHEM_BOND_DEF_STEREO_COUNT>
0

> <PUBCHEM_BOND_UDEF_STEREO_COUNT>
0

> <PUBCHEM_ISOTOPIC_ATOM_COUNT>
0

> <PUBCHEM_COMPONENT_COUNT>
1

> <PUBCHEM_CACTVS_TAUTO_COUNT>
11

> <PUBCHEM_CONFORMER_ID>
01096EE000000002

> <PUBCHEM_MMFF94_ENERGY>
67.0625

> <PUBCHEM_FEATURE_SELFOVERLAP>
45.669

> <PUBCHEM_SHAPE_FINGERPRINT>
10 15 18202565064036650624
10050765 1 18051131689906813653
11315181 36 18040995142825436529
11638347 137 16917073282891358848
11719270 70 18187367666211228838
125118 31 18343298171826471852
12838862 33 17988938768960904685
13533116 47 14057269948631100644
13668630 136 8935004771616429184
14251757 52 18411705374559612352
14251764 18 17917992772182710467
14251764 46 18410855473013076679
14729087 3 18342460357225125837
14849402 71 18261108531026154761
14933364 13 18411136943774051764
15048467 5 18334013891240438643
15183329 4 14923940141659541032
15461852 350 17822297860539462335
15849732 13 18412825785387123613
16120349 18 18408326566595168317
16989713 51 17314800586090931135
17093844 174 17917711302086347897
20157964 124 18187362151868339934
20281389 69 18343866636222099133
21033648 29 18263376802481784712
21130935 74 18272650168685519699
21150785 3 13912325680889178339
21304253 13 18342738503064729517
21315763 28 18410575093769965237
21521721 280 18335417980379429011
21792934 111 18334586763249127528
22224240 67 18272934916384643595
23559900 14 18335989662275799737
246663 6 7204771506192379869
249057 3 15575003840228859473
255183 451 17461709882521593854
33532 11 9871751286612561136
335352 9 18413106147566429879
34797466 226 17894625981012478782
4073 2 18201996590850752226
4339292 15 15912753996695013683
4340502 62 16559032705304387482
444735 82 18342173328819499604
4463277 17 18411138034621774991
465052 167 11095885973607335890
5758199 1 17989205949495443011
6328613 192 18333730213051201833
6438161 24 6771873944537010636
67123 10 18335139783295909415

> <PUBCHEM_SHAPE_MULTIPOLES>
461.36
24.6
1.88
0.68
7.35
0.33
0
10.52
-2.13
-1.61
-0.09
0.01
0.02
1.19

> <PUBCHEM_SHAPE_SELFOVERLAP>
1005.098

> <PUBCHEM_SHAPE_VOLUME>
249

> <PUBCHEM_COORDINATE_TYPE>
2
5
10

$$$$

