10086
  -OEChem-06261204183D

 53 55  0     1  0  0  0  0  0999 V2000
   -0.4169    0.8839    0.0947 O   0  0  0  0  0  0  0  0  0  0  0  0
    2.6754   -0.0218    1.6884 O   0  0  0  0  0  0  0  0  0  0  0  0
    0.3566    1.1616    2.2478 O   0  0  0  0  0  0  0  0  0  0  0  0
   -4.1067    0.8621   -0.3263 N   0  0  2  0  0  0  0  0  0  0  0  0
    2.4759    1.0856   -0.3895 C   0  0  0  0  0  0  0  0  0  0  0  0
    2.7696    2.4494    0.2279 C   0  0  0  0  0  0  0  0  0  0  0  0
    3.8624    0.6185   -0.8212 C   0  0  0  0  0  0  0  0  0  0  0  0
    1.7936    0.1277    0.5713 C   0  0  2  0  0  0  0  0  0  0  0  0
    3.8217    3.0559   -0.6955 C   0  0  0  0  0  0  0  0  0  0  0  0
    4.5171    1.8777   -1.3797 C   0  0  0  0  0  0  0  0  0  0  0  0
   -1.7780    0.8283    0.5085 C   0  0  2  0  0  0  0  0  0  0  0  0
    0.5155    0.7837    1.0934 C   0  0  0  0  0  0  0  0  0  0  0  0
    1.5118   -1.2718    0.0410 C   0  0  0  0  0  0  0  0  0  0  0  0
   -2.0374   -0.4880    1.2366 C   0  0  0  0  0  0  0  0  0  0  0  0
   -2.6941    0.9809   -0.7091 C   0  0  0  0  0  0  0  0  0  0  0  0
   -3.5194   -0.6361    1.5556 C   0  0  0  0  0  0  0  0  0  0  0  0
   -4.3786   -0.4370    0.3052 C   0  0  0  0  0  0  0  0  0  0  0  0
   -4.9711    1.0569   -1.4900 C   0  0  0  0  0  0  0  0  0  0  0  0
    1.1757   -1.4250   -1.2882 C   0  0  0  0  0  0  0  0  0  0  0  0
    1.6017   -2.3426    0.9059 C   0  0  0  0  0  0  0  0  0  0  0  0
   -6.4383    0.9878   -1.1018 C   0  0  0  0  0  0  0  0  0  0  0  0
    0.9178   -2.7068   -1.7742 C   0  0  0  0  0  0  0  0  0  0  0  0
    1.3438   -3.6244    0.4197 C   0  0  0  0  0  0  0  0  0  0  0  0
    1.0019   -3.8064   -0.9204 C   0  0  0  0  0  0  0  0  0  0  0  0
    1.8634    1.2642   -1.2834 H   0  0  0  0  0  0  0  0  0  0  0  0
    3.1976    2.3836    1.2332 H   0  0  0  0  0  0  0  0  0  0  0  0
    1.8813    3.0865    0.2870 H   0  0  0  0  0  0  0  0  0  0  0  0
    3.8308   -0.1763   -1.5725 H   0  0  0  0  0  0  0  0  0  0  0  0
    4.4583    0.2530    0.0232 H   0  0  0  0  0  0  0  0  0  0  0  0
    3.3469    3.6948   -1.4492 H   0  0  0  0  0  0  0  0  0  0  0  0
    4.5300    3.6780   -0.1387 H   0  0  0  0  0  0  0  0  0  0  0  0
    5.5968    1.8808   -1.1989 H   0  0  0  0  0  0  0  0  0  0  0  0
    4.3657    1.9374   -2.4638 H   0  0  0  0  0  0  0  0  0  0  0  0
   -1.9687    1.6709    1.1877 H   0  0  0  0  0  0  0  0  0  0  0  0
   -1.4653   -0.5640    2.1670 H   0  0  0  0  0  0  0  0  0  0  0  0
   -1.7079   -1.3284    0.6119 H   0  0  0  0  0  0  0  0  0  0  0  0
   -2.5039    1.9632   -1.1606 H   0  0  0  0  0  0  0  0  0  0  0  0
   -2.4224    0.2388   -1.4729 H   0  0  0  0  0  0  0  0  0  0  0  0
   -3.7081   -1.6290    1.9795 H   0  0  0  0  0  0  0  0  0  0  0  0
   -3.8045    0.0981    2.3199 H   0  0  0  0  0  0  0  0  0  0  0  0
   -5.4162   -0.5099    0.6456 H   0  0  0  0  0  0  0  0  0  0  0  0
   -4.2021   -1.2605   -0.3992 H   0  0  0  0  0  0  0  0  0  0  0  0
    2.6072    0.7601    2.2605 H   0  0  0  0  0  0  0  0  0  0  0  0
   -4.7645    0.3223   -2.2785 H   0  0  0  0  0  0  0  0  0  0  0  0
   -4.7820    2.0508   -1.9140 H   0  0  0  0  0  0  0  0  0  0  0  0
    1.0830   -0.5921   -1.9754 H   0  0  0  0  0  0  0  0  0  0  0  0
    1.8461   -2.2323    1.9575 H   0  0  0  0  0  0  0  0  0  0  0  0
   -6.7765   -0.0370   -0.9203 H   0  0  0  0  0  0  0  0  0  0  0  0
   -6.6553    1.5982   -0.2185 H   0  0  0  0  0  0  0  0  0  0  0  0
   -7.0508    1.3761   -1.9234 H   0  0  0  0  0  0  0  0  0  0  0  0
    0.6467   -2.8484   -2.8163 H   0  0  0  0  0  0  0  0  0  0  0  0
    1.4042   -4.4805    1.0854 H   0  0  0  0  0  0  0  0  0  0  0  0
    0.7988   -4.8041   -1.2983 H   0  0  0  0  0  0  0  0  0  0  0  0
  1 11  1  0  0  0  0
  1 12  1  0  0  0  0
  2  8  1  0  0  0  0
  2 43  1  0  0  0  0
  3 12  2  0  0  0  0
  4 15  1  0  0  0  0
  4 17  1  0  0  0  0
  4 18  1  0  0  0  0
  5  6  1  0  0  0  0
  5  7  1  0  0  0  0
  5  8  1  0  0  0  0
  5 25  1  0  0  0  0
  6  9  1  0  0  0  0
  6 26  1  0  0  0  0
  6 27  1  0  0  0  0
  7 10  1  0  0  0  0
  7 28  1  0  0  0  0
  7 29  1  0  0  0  0
  8 12  1  0  0  0  0
  8 13  1  0  0  0  0
  9 10  1  0  0  0  0
  9 30  1  0  0  0  0
  9 31  1  0  0  0  0
 10 32  1  0  0  0  0
 10 33  1  0  0  0  0
 11 14  1  0  0  0  0
 11 15  1  0  0  0  0
 11 34  1  0  0  0  0
 13 19  2  0  0  0  0
 13 20  1  0  0  0  0
 14 16  1  0  0  0  0
 14 35  1  0  0  0  0
 14 36  1  0  0  0  0
 15 37  1  0  0  0  0
 15 38  1  0  0  0  0
 16 17  1  0  0  0  0
 16 39  1  0  0  0  0
 16 40  1  0  0  0  0
 17 41  1  0  0  0  0
 17 42  1  0  0  0  0
 18 21  1  0  0  0  0
 18 44  1  0  0  0  0
 18 45  1  0  0  0  0
 19 22  1  0  0  0  0
 19 46  1  0  0  0  0
 20 23  2  0  0  0  0
 20 47  1  0  0  0  0
 21 48  1  0  0  0  0
 21 49  1  0  0  0  0
 21 50  1  0  0  0  0
 22 24  2  0  0  0  0
 22 51  1  0  0  0  0
 23 24  1  0  0  0  0
 23 52  1  0  0  0  0
 24 53  1  0  0  0  0
M  END
> <PUBCHEM_COMPOUND_CID>
10086

> <PUBCHEM_CONFORMER_RMSD>
1

> <PUBCHEM_CONFORMER_DIVERSEORDER>
4
617
21
5
262
98
356
534
615
565
52
489
12
395
329
373
211
132
564
303
547
608
110
155
103
87
445
327
193
294
86
26
63
286
77
169
81
521
144
236
131
584
161
305
39
282
415
609
314
341
64
11
616
186
24
73
70
187
255
68
179
318
59
93
120
203
446
237
405
126
308
61
381
57
49
605
47
449
2
6
256
597
33
41
30
500
529
304
201
15
129
45
156
152
455
18
16
113
32
399
410
1
224
46
123
376
190
165
88
299
271
20
301
599
69
512
14
74
9
119
325
42
434
205
580
168
212
50
111
242
324
134
31
357
238
17
53
428
558
94
543
34
10
7
379
148
263
25
118
175
259
75
502
235
535
117
400
164

> <PUBCHEM_MMFF94_PARTIAL_CHARGES>
22
1 -0.43
11 0.28
12 0.66
13 -0.14
15 0.27
17 0.27
18 0.27
19 -0.15
2 -0.68
20 -0.15
22 -0.15
23 -0.15
24 -0.15
3 -0.57
4 -0.81
43 0.4
46 0.15
47 0.15
51 0.15
52 0.15
53 0.15
8 0.48

> <PUBCHEM_EFFECTIVE_ROTOR_COUNT>
8.2

> <PUBCHEM_PHARMACOPHORE_FEATURES>
7
1 2 acceptor
1 2 donor
1 3 acceptor
1 4 cation
5 5 6 7 9 10 rings
6 13 19 20 22 23 24 rings
6 4 11 14 15 16 17 rings

> <PUBCHEM_HEAVY_ATOM_COUNT>
24

> <PUBCHEM_ATOM_DEF_STEREO_COUNT>
0

> <PUBCHEM_ATOM_UDEF_STEREO_COUNT>
2

> <PUBCHEM_BOND_DEF_STEREO_COUNT>
0

> <PUBCHEM_BOND_UDEF_STEREO_COUNT>
0

> <PUBCHEM_ISOTOPIC_ATOM_COUNT>
0

> <PUBCHEM_COMPONENT_COUNT>
1

> <PUBCHEM_CACTVS_TAUTO_COUNT>
1

> <PUBCHEM_CONFORMER_ID>
0000276600000004

> <PUBCHEM_MMFF94_ENERGY>
52.6979

> <PUBCHEM_FEATURE_SELFOVERLAP>
35.528

> <PUBCHEM_SHAPE_FINGERPRINT>
10366900 7 18259988163252927737
10871710 139 16110329362998703164
11069576 57 17969512687157042135
11421498 54 17677593376247283945
11488393 25 18264466525425990110
12553582 1 17545017760147253899
12730499 353 18413384333173262865
12788726 201 17618233806123771402
12969540 114 18263076617947296992
13149001 5 17534334540516144472
13150687 139 18336260151132290844
13257819 37 18052793907012615838
13383661 66 16736642118851078751
133893 2 18192691552925355818
13681431 1 17974844274837609830
13836976 161 18335430083596970238
13911987 19 18264756680093756260
14863182 85 17604726593286307286
14955137 171 18270694168407826842
15163728 17 17844782885358185396
15849732 13 18341906203739039634
17134984 74 17461475514840319335
17138139 8 17388566829592691375
17818456 19 16954781201569980393
17980427 26 16987737713992412600
20197701 30 18339075991577983742
20645477 70 18337112371158785847
21285901 2 18198915880182604701
21304303 94 17603583036504777575
21344244 181 17460289110906725710
21344244 246 18188764067843575734
21452121 199 17975417128922325426
21641784 216 16612213557415310588
21756936 100 17342937045743322852
22393880 68 17968950686554461959
23114952 82 18269554004191900773
23227448 37 17691394223246456948
23419403 2 17181307852538213174
23557571 272 17131253710985559337
23558518 356 17977103788565923017
23559900 14 18270970166510093531
238 59 18408042931128438987
25147074 1 17751068322736554641
3060560 45 18411135827557562156
3472631 163 17131835344136753045
3729539 64 18194371555870421766
404807 78 17983301426764622983
4280585 95 17688864659328994838
44802255 64 17841401789061981044
46194498 28 18270124650995579927
495365 180 18337406962617809865
53917941 68 18047477725453648884
6025842 7 18411423942468965639
633830 44 17751612460295590016
6669772 16 18335970992601402030
81228 2 17398679999857847586
81539 233 18411978057353061374
8272917 22 18337390543131455653
9709674 26 18268994366011620947
9925002 15 17190645789532366637

> <PUBCHEM_SHAPE_MULTIPOLES>
471.32
9.66
3.74
1.71
14.35
3.38
0.21
-7.68
-4.03
-4.43
-1.12
0.27
0.17
0.45

> <PUBCHEM_SHAPE_SELFOVERLAP>
990.573

> <PUBCHEM_SHAPE_VOLUME>
265.5

> <PUBCHEM_COORDINATE_TYPE>
2
5
10

$$$$

