9909
  -OEChem-06261204103D

 29 31  0     0  0  0  0  0  0999 V2000
   -0.3165   -1.6358   -0.0665 O   0  0  0  0  0  0  0  0  0  0  0  0
   -0.6583    2.5712   -0.0558 O   0  0  0  0  0  0  0  0  0  0  0  0
    4.4025   -1.4035    0.0417 O   0  0  0  0  0  0  0  0  0  0  0  0
    1.9706    2.6578   -0.0190 O   0  0  0  0  0  0  0  0  0  0  0  0
   -5.3922    0.5062    0.1000 O   0  0  0  0  0  0  0  0  0  0  0  0
    0.6952    0.6038   -0.0167 C   0  0  0  0  0  0  0  0  0  0  0  0
   -1.7208    0.3562   -0.0177 C   0  0  0  0  0  0  0  0  0  0  0  0
    0.8254   -0.8475   -0.0246 C   0  0  0  0  0  0  0  0  0  0  0  0
   -0.5113    1.2002   -0.0282 C   0  0  0  0  0  0  0  0  0  0  0  0
   -1.5540   -1.0357   -0.0459 C   0  0  0  0  0  0  0  0  0  0  0  0
    1.9553    1.4319   -0.0087 C   0  0  0  0  0  0  0  0  0  0  0  0
    2.0313   -1.4338   -0.0086 C   0  0  0  0  0  0  0  0  0  0  0  0
   -3.0300    0.8582    0.0409 C   0  0  0  0  0  0  0  0  0  0  0  0
   -2.6529   -1.9008   -0.0423 C   0  0  0  0  0  0  0  0  0  0  0  0
    3.2454   -0.6577    0.0189 C   0  0  0  0  0  0  0  0  0  0  0  0
    3.2413    0.6820    0.0172 C   0  0  0  0  0  0  0  0  0  0  0  0
   -4.1310   -0.0047    0.0466 C   0  0  0  0  0  0  0  0  0  0  0  0
   -3.9431   -1.3827    0.0008 C   0  0  0  0  0  0  0  0  0  0  0  0
    5.5428   -0.5655    0.0678 C   0  0  0  0  0  0  0  0  0  0  0  0
    2.1170   -2.5163   -0.0204 H   0  0  0  0  0  0  0  0  0  0  0  0
   -3.1961    1.9331    0.0770 H   0  0  0  0  0  0  0  0  0  0  0  0
   -2.5069   -2.9773   -0.0679 H   0  0  0  0  0  0  0  0  0  0  0  0
    4.1124    1.3250    0.0333 H   0  0  0  0  0  0  0  0  0  0  0  0
   -4.7957   -2.0558    0.0054 H   0  0  0  0  0  0  0  0  0  0  0  0
    0.2087    3.0034   -0.0743 H   0  0  0  0  0  0  0  0  0  0  0  0
   -5.3390    1.4769    0.1274 H   0  0  0  0  0  0  0  0  0  0  0  0
    5.6019    0.0351    0.9834 H   0  0  0  0  0  0  0  0  0  0  0  0
    5.6432    0.0355   -0.8439 H   0  0  0  0  0  0  0  0  0  0  0  0
    6.4183   -1.2247    0.0874 H   0  0  0  0  0  0  0  0  0  0  0  0
  1  8  1  0  0  0  0
  1 10  1  0  0  0  0
  2  9  1  0  0  0  0
  2 25  1  0  0  0  0
  3 15  1  0  0  0  0
  3 19  1  0  0  0  0
  4 11  2  0  0  0  0
  5 17  1  0  0  0  0
  5 26  1  0  0  0  0
  6  8  1  0  0  0  0
  6  9  2  0  0  0  0
  6 11  1  0  0  0  0
  7  9  1  0  0  0  0
  7 10  2  0  0  0  0
  7 13  1  0  0  0  0
  8 12  2  0  0  0  0
 10 14  1  0  0  0  0
 11 16  1  0  0  0  0
 12 15  1  0  0  0  0
 12 20  1  0  0  0  0
 13 17  2  0  0  0  0
 13 21  1  0  0  0  0
 14 18  2  0  0  0  0
 14 22  1  0  0  0  0
 15 16  2  0  0  0  0
 16 23  1  0  0  0  0
 17 18  1  0  0  0  0
 18 24  1  0  0  0  0
 19 27  1  0  0  0  0
 19 28  1  0  0  0  0
 19 29  1  0  0  0  0
M  END
> <PUBCHEM_COMPOUND_CID>
9909

> <PUBCHEM_CONFORMER_RMSD>
0.6

> <PUBCHEM_CONFORMER_DIVERSEORDER>
1

> <PUBCHEM_MMFF94_PARTIAL_CHARGES>
26
1 -0.16
10 0.08
11 0.54
12 -0.15
13 -0.15
14 -0.15
15 0.08
16 -0.14
17 0.08
18 -0.15
19 0.28
2 -0.53
20 0.15
21 0.15
22 0.15
23 0.15
24 0.15
25 0.45
26 0.45
3 -0.36
4 -0.57
5 -0.53
6 0.01
7 0.03
8 0.08
9 0.05

> <PUBCHEM_EFFECTIVE_ROTOR_COUNT>
1

> <PUBCHEM_PHARMACOPHORE_FEATURES>
8
1 1 acceptor
1 2 donor
1 3 acceptor
1 4 acceptor
1 5 donor
6 1 6 7 8 9 10 rings
6 6 8 11 12 15 16 rings
6 7 10 13 14 17 18 rings

> <PUBCHEM_HEAVY_ATOM_COUNT>
19

> <PUBCHEM_ATOM_DEF_STEREO_COUNT>
0

> <PUBCHEM_ATOM_UDEF_STEREO_COUNT>
0

> <PUBCHEM_BOND_DEF_STEREO_COUNT>
0

> <PUBCHEM_BOND_UDEF_STEREO_COUNT>
0

> <PUBCHEM_ISOTOPIC_ATOM_COUNT>
0

> <PUBCHEM_COMPONENT_COUNT>
1

> <PUBCHEM_CACTVS_TAUTO_COUNT>
12

> <PUBCHEM_CONFORMER_ID>
000026B500000001

> <PUBCHEM_MMFF94_ENERGY>
62.4577

> <PUBCHEM_FEATURE_SELFOVERLAP>
40.649

> <PUBCHEM_SHAPE_FINGERPRINT>
10062212 137 18334018255143898559
10608611 8 18339645542732829453
10906281 52 18338778079634986502
10967382 1 18410573998046922039
11132069 177 18408610244557448243
11471102 20 18411140220770684780
11806522 49 18412825794103671212
12011746 2 18410293652667768006
12032990 46 18412260601792387915
12236239 1 17847060004225515550
12251169 10 18408603673331357671
12553582 1 18341344369501545714
13140716 1 18338233769428089043
13288520 33 18409445912386971158
13583140 156 14490479694206091343
13862211 1 18410860983746664034
14115302 16 17846487128386454030
15042514 8 18051417567768464682
15099037 51 18410856577125821919
15196674 1 18338517443401642215
15375462 189 18131074869548981338
15442244 35 18409728439387991673
15536298 74 18334858268941852056
16945 1 18339083799243004300
17492 89 18122627150057075939
17802600 8 18411703192204256244
17804303 29 18410290302582655940
1813 80 17489593350797390028
18186145 218 17632024056752004947
18522853 276 18335702758417734866
19141452 34 18187366519291040751
19591789 44 18339361851315993987
200 152 18040438784908504855
20510252 161 18116715312193766464
20645477 70 18408604729904018207
21029758 11 18408042931144243856
21267235 1 18410847751057894155
21279426 13 18123753324809391519
21421861 104 17843124959083234642
21452121 103 18189627051094985944
21501502 16 18265332815875714439
221490 88 18269830913460263186
2297311 6 18262508295522304830
2334 1 18266458694033316455
23366157 5 17987521399319669036
23402539 116 18261399948498142855
23463225 33 18410855425831798509
23557571 272 18042961155161766028
23559900 14 18335988579917485248
23622692 118 17970360221849302463
2748010 2 18338519620971153933
3004659 81 18201716302186880558
335352 9 18410575106575804701
34934 24 18339367456390649107
350125 39 18411416236881554485
4214541 1 18410575080879873003
4463277 17 18411135832010381940
5104073 3 18338234868950240995
633830 44 17489592208188220377
7364860 26 18263646169608285240
8809292 202 18272084976637382395
9709674 26 18197214746104015467
9981440 41 17402898825889826112

> <PUBCHEM_SHAPE_MULTIPOLES>
361.66
9.31
2.22
0.59
1.19
0.83
0
-2.31
0.32
0.25
-0.04
0
-0.01
-0.06

> <PUBCHEM_SHAPE_SELFOVERLAP>
808.206

> <PUBCHEM_SHAPE_VOLUME>
190.6

> <PUBCHEM_COORDINATE_TYPE>
2
5
10

$$$$

