7901
  -OEChem-06261202263D

 16 15  0     0  0  0  0  0  0999 V2000
   -2.9251    0.2392    0.1905 Cl  0  0  0  0  0  0  0  0  0  0  0  0
    1.0649    0.0165   -0.3135 N   0  0  0  0  0  0  0  0  0  0  0  0
   -0.2297    0.5364    0.1254 C   0  0  0  0  0  0  0  0  0  0  0  0
   -1.3439   -0.3965   -0.3231 C   0  0  0  0  0  0  0  0  0  0  0  0
    1.2927   -1.3190    0.2372 C   0  0  0  0  0  0  0  0  0  0  0  0
    2.1411    0.9235    0.0835 C   0  0  0  0  0  0  0  0  0  0  0  0
   -0.3945    1.5260   -0.3196 H   0  0  0  0  0  0  0  0  0  0  0  0
   -0.2563    0.6613    1.2162 H   0  0  0  0  0  0  0  0  0  0  0  0
   -1.3676   -0.5028   -1.4123 H   0  0  0  0  0  0  0  0  0  0  0  0
   -1.2822   -1.3893    0.1274 H   0  0  0  0  0  0  0  0  0  0  0  0
    0.6684   -2.0748   -0.2492 H   0  0  0  0  0  0  0  0  0  0  0  0
    1.1351   -1.3597    1.3212 H   0  0  0  0  0  0  0  0  0  0  0  0
    2.3233   -1.6405    0.0416 H   0  0  0  0  0  0  0  0  0  0  0  0
    3.1058    0.5660   -0.2935 H   0  0  0  0  0  0  0  0  0  0  0  0
    2.2137    1.0289    1.1721 H   0  0  0  0  0  0  0  0  0  0  0  0
    1.9868    1.9180   -0.3498 H   0  0  0  0  0  0  0  0  0  0  0  0
  1  4  1  0  0  0  0
  2  3  1  0  0  0  0
  2  5  1  0  0  0  0
  2  6  1  0  0  0  0
  3  4  1  0  0  0  0
  3  7  1  0  0  0  0
  3  8  1  0  0  0  0
  4  9  1  0  0  0  0
  4 10  1  0  0  0  0
  5 11  1  0  0  0  0
  5 12  1  0  0  0  0
  5 13  1  0  0  0  0
  6 14  1  0  0  0  0
  6 15  1  0  0  0  0
  6 16  1  0  0  0  0
M  END
> <PUBCHEM_COMPOUND_CID>
7901

> <PUBCHEM_CONFORMER_RMSD>
0.4

> <PUBCHEM_CONFORMER_DIVERSEORDER>
1
5
3
2
4

> <PUBCHEM_MMFF94_PARTIAL_CHARGES>
6
1 -0.29
2 -0.81
3 0.27
4 0.29
5 0.27
6 0.27

> <PUBCHEM_EFFECTIVE_ROTOR_COUNT>
2

> <PUBCHEM_PHARMACOPHORE_FEATURES>
1
1 2 cation

> <PUBCHEM_HEAVY_ATOM_COUNT>
6

> <PUBCHEM_ATOM_DEF_STEREO_COUNT>
0

> <PUBCHEM_ATOM_UDEF_STEREO_COUNT>
0

> <PUBCHEM_BOND_DEF_STEREO_COUNT>
0

> <PUBCHEM_BOND_UDEF_STEREO_COUNT>
0

> <PUBCHEM_ISOTOPIC_ATOM_COUNT>
0

> <PUBCHEM_COMPONENT_COUNT>
1

> <PUBCHEM_CACTVS_TAUTO_COUNT>
1

> <PUBCHEM_CONFORMER_ID>
00001EDD00000001

> <PUBCHEM_MMFF94_ENERGY>
8.8831

> <PUBCHEM_FEATURE_SELFOVERLAP>
5.074

> <PUBCHEM_SHAPE_FINGERPRINT>
139733 1 9006758908929394023
14390081 3 18113901524610201241
20096714 4 18334576789533017516
21040471 1 18267584607062457286
23552333 60 18334574689204287410
23552449 11 18129675221364236986
29004967 10 17988921171678195465
5460574 1 9871754589610833477

> <PUBCHEM_SHAPE_MULTIPOLES>
120.37
3.73
1.14
0.66
2.15
0.23
0.01
-0.59
0.25
-0.64
0.08
0.05
0.01
-0.1

> <PUBCHEM_SHAPE_SELFOVERLAP>
199.209

> <PUBCHEM_SHAPE_VOLUME>
84.2

> <PUBCHEM_COORDINATE_TYPE>
2
5
10

$$$$

