17396110
  -OEChem-06241222543D

 53 56  0     1  0  0  0  0  0999 V2000
    6.0630    0.3058   -0.9483 Cl  0  0  0  0  0  0  0  0  0  0  0  0
    3.3154   -1.4095   -1.1299 S   0  0  0  0  0  0  0  0  0  0  0  0
    1.9230   -1.8168   -1.1856 O   0  0  0  0  0  0  0  0  0  0  0  0
    4.1553   -1.5029   -2.3106 O   0  0  0  0  0  0  0  0  0  0  0  0
    0.8577    3.7522    1.4287 O   0  0  0  0  0  0  0  0  0  0  0  0
    4.0828   -2.1823    0.1734 N   0  0  0  0  0  0  0  0  0  0  0  0
   -0.2892    2.3166    0.0144 N   0  0  0  0  0  0  0  0  0  0  0  0
   -5.5720   -1.2146   -0.1116 N   0  0  0  0  0  0  0  0  0  0  0  0
   -6.3018   -1.5926    0.9488 N   0  0  0  0  0  0  0  0  0  0  0  0
   -6.8721   -2.7700   -0.9277 N   0  0  0  0  0  0  0  0  0  0  0  0
    3.4614   -2.0661    1.5252 C   0  0  0  0  0  0  0  0  0  0  0  0
    4.5321   -3.5884   -0.0209 C   0  0  0  0  0  0  0  0  0  0  0  0
    3.4401   -3.4856    2.0762 C   0  0  0  0  0  0  0  0  0  0  0  0
    4.6226   -4.1432    1.3919 C   0  0  0  0  0  0  0  0  0  0  0  0
    3.3551    0.2694   -0.5777 C   0  0  0  0  0  0  0  0  0  0  0  0
    2.1490    0.8656   -0.2093 C   0  0  0  0  0  0  0  0  0  0  0  0
    4.5434    0.9963   -0.5042 C   0  0  0  0  0  0  0  0  0  0  0  0
    2.1312    2.1885    0.2322 C   0  0  0  0  0  0  0  0  0  0  0  0
   -1.6093    2.8446    0.2740 C   0  0  2  0  0  0  0  0  0  0  0  0
    4.5256    2.3193   -0.0626 C   0  0  0  0  0  0  0  0  0  0  0  0
    3.3196    2.9154    0.3056 C   0  0  0  0  0  0  0  0  0  0  0  0
    0.8741    2.8106    0.6161 C   0  0  0  0  0  0  0  0  0  0  0  0
   -2.6634    1.7634    0.1716 C   0  0  0  0  0  0  0  0  0  0  0  0
   -1.9015    4.0339   -0.6386 C   0  0  0  0  0  0  0  0  0  0  0  0
   -3.4010    1.3995    1.2981 C   0  0  0  0  0  0  0  0  0  0  0  0
   -2.8985    1.1320   -1.0498 C   0  0  0  0  0  0  0  0  0  0  0  0
   -4.6085   -0.2272   -0.0180 C   0  0  0  0  0  0  0  0  0  0  0  0
   -4.3736    0.4042    1.2035 C   0  0  0  0  0  0  0  0  0  0  0  0
   -3.8711    0.1366   -1.1446 C   0  0  0  0  0  0  0  0  0  0  0  0
   -5.9167   -1.9193   -1.2227 C   0  0  0  0  0  0  0  0  0  0  0  0
   -7.0725   -2.5354    0.4025 C   0  0  0  0  0  0  0  0  0  0  0  0
    2.4511   -1.6496    1.5015 H   0  0  0  0  0  0  0  0  0  0  0  0
    4.0953   -1.4168    2.1387 H   0  0  0  0  0  0  0  0  0  0  0  0
    5.4987   -3.6199   -0.5302 H   0  0  0  0  0  0  0  0  0  0  0  0
    3.7902   -4.1454   -0.6037 H   0  0  0  0  0  0  0  0  0  0  0  0
    2.5106   -3.9882    1.7824 H   0  0  0  0  0  0  0  0  0  0  0  0
    3.5111   -3.5110    3.1671 H   0  0  0  0  0  0  0  0  0  0  0  0
    5.5584   -3.8257    1.8672 H   0  0  0  0  0  0  0  0  0  0  0  0
    4.5751   -5.2353    1.4167 H   0  0  0  0  0  0  0  0  0  0  0  0
    1.2340    0.2828   -0.2311 H   0  0  0  0  0  0  0  0  0  0  0  0
   -1.6049    3.2299    1.3019 H   0  0  0  0  0  0  0  0  0  0  0  0
    5.4423    2.9003   -0.0005 H   0  0  0  0  0  0  0  0  0  0  0  0
    3.3266    3.9487    0.6427 H   0  0  0  0  0  0  0  0  0  0  0  0
   -0.2116    1.6176   -0.7172 H   0  0  0  0  0  0  0  0  0  0  0  0
   -1.1766    4.8386   -0.4718 H   0  0  0  0  0  0  0  0  0  0  0  0
   -2.9024    4.4382   -0.4513 H   0  0  0  0  0  0  0  0  0  0  0  0
   -1.8406    3.7626   -1.6985 H   0  0  0  0  0  0  0  0  0  0  0  0
   -3.2294    1.8821    2.2566 H   0  0  0  0  0  0  0  0  0  0  0  0
   -2.3317    1.3990   -1.9376 H   0  0  0  0  0  0  0  0  0  0  0  0
   -4.9262    0.1499    2.1042 H   0  0  0  0  0  0  0  0  0  0  0  0
   -4.0102   -0.3206   -2.1186 H   0  0  0  0  0  0  0  0  0  0  0  0
   -5.4819   -1.8084   -2.2060 H   0  0  0  0  0  0  0  0  0  0  0  0
   -7.8037   -3.0680    0.9922 H   0  0  0  0  0  0  0  0  0  0  0  0
  1 17  1  0  0  0  0
  2  3  2  0  0  0  0
  2  4  2  0  0  0  0
  2  6  1  0  0  0  0
  2 15  1  0  0  0  0
  5 22  2  0  0  0  0
  6 11  1  0  0  0  0
  6 12  1  0  0  0  0
  7 19  1  0  0  0  0
  7 22  1  0  0  0  0
  7 44  1  0  0  0  0
  8  9  1  0  0  0  0
  8 27  1  0  0  0  0
  8 30  1  0  0  0  0
  9 31  2  0  0  0  0
 10 30  2  0  0  0  0
 10 31  1  0  0  0  0
 11 13  1  0  0  0  0
 11 32  1  0  0  0  0
 11 33  1  0  0  0  0
 12 14  1  0  0  0  0
 12 34  1  0  0  0  0
 12 35  1  0  0  0  0
 13 14  1  0  0  0  0
 13 36  1  0  0  0  0
 13 37  1  0  0  0  0
 14 38  1  0  0  0  0
 14 39  1  0  0  0  0
 15 16  1  0  0  0  0
 15 17  2  0  0  0  0
 16 18  2  0  0  0  0
 16 40  1  0  0  0  0
 17 20  1  0  0  0  0
 18 21  1  0  0  0  0
 18 22  1  0  0  0  0
 19 23  1  0  0  0  0
 19 24  1  0  0  0  0
 19 41  1  0  0  0  0
 20 21  2  0  0  0  0
 20 42  1  0  0  0  0
 21 43  1  0  0  0  0
 23 25  2  0  0  0  0
 23 26  1  0  0  0  0
 24 45  1  0  0  0  0
 24 46  1  0  0  0  0
 24 47  1  0  0  0  0
 25 28  1  0  0  0  0
 25 48  1  0  0  0  0
 26 29  2  0  0  0  0
 26 49  1  0  0  0  0
 27 28  2  0  0  0  0
 27 29  1  0  0  0  0
 28 50  1  0  0  0  0
 29 51  1  0  0  0  0
 30 52  1  0  0  0  0
 31 53  1  0  0  0  0
M  END
> <PUBCHEM_COMPOUND_CID>
17396110

> <PUBCHEM_CONFORMER_RMSD>
1

> <PUBCHEM_CONFORMER_DIVERSEORDER>
1
21
8
94
108
61
92
37
22
107
31
69
76
15
6
118
109
112
54
57
97
99
10
116
58
45
63
40
75
4
82
115
81
42
7
28
11
48
113
56
13
49
65
23
100
111
78
20
101
29
2
66
68
87
59
3
96
77
17
84
5
90
55
70
44
32
39
117
62
51
80
86
83
19
64
36
47
106
95
33
18
105
114
89
104
60
34
43
12
46
72
74
27
71
50
53
85
41
88
16
79
9
14
73
25
30
102
93
110
103
26
35
98
52
91
38
67
24

> <PUBCHEM_MMFF94_PARTIAL_CHARGES>
38
1 -0.18
10 -0.57
11 0.36
12 0.36
15 -0.01
16 -0.15
17 0.18
18 0.09
19 0.44
2 1.45
20 -0.15
21 -0.15
22 0.54
23 -0.14
25 -0.15
26 -0.15
27 -0.02
28 -0.15
29 -0.15
3 -0.65
30 0.04
31 0.37
4 -0.65
40 0.15
42 0.15
43 0.15
44 0.37
48 0.15
49 0.15
5 -0.57
50 0.15
51 0.15
52 0.15
53 0.15
6 -0.85
7 -0.73
8 0.59
9 -0.71

> <PUBCHEM_EFFECTIVE_ROTOR_COUNT>
8

> <PUBCHEM_PHARMACOPHORE_FEATURES>
10
1 3 acceptor
1 4 acceptor
1 5 acceptor
1 7 donor
3 8 10 30 cation
3 9 10 31 cation
5 6 11 12 13 14 rings
5 8 9 10 30 31 rings
6 15 16 17 18 20 21 rings
6 23 25 26 27 28 29 rings

> <PUBCHEM_HEAVY_ATOM_COUNT>
31

> <PUBCHEM_ATOM_DEF_STEREO_COUNT>
0

> <PUBCHEM_ATOM_UDEF_STEREO_COUNT>
1

> <PUBCHEM_BOND_DEF_STEREO_COUNT>
0

> <PUBCHEM_BOND_UDEF_STEREO_COUNT>
0

> <PUBCHEM_ISOTOPIC_ATOM_COUNT>
0

> <PUBCHEM_COMPONENT_COUNT>
1

> <PUBCHEM_CACTVS_TAUTO_COUNT>
2

> <PUBCHEM_CONFORMER_ID>
0109718E00000001

> <PUBCHEM_MMFF94_ENERGY>
69.0664

> <PUBCHEM_FEATURE_SELFOVERLAP>
53.51

> <PUBCHEM_SHAPE_FINGERPRINT>
10074138 170 17254311950437466992
10622 236 18269562804316354203
10928967 22 18267007522208342659
117089 54 18263920097742544255
11963148 33 18339088098764347646
1200032 147 6699516256411914530
12107183 9 18114726215057503073
12559416 138 18261969534398187318
12559416 39 18048343294339988127
12655387 17 18264476469039944165
13553639 21 18412255143349281259
1361 2 18120936109852863209
14910700 183 17974585597526779824
15003188 105 18412261748975969502
15320291 9 17550678042118831523
15347590 135 17968950669433375896
15361156 5 18199446870894641909
15399243 27 18267010833813790155
15721738 202 17822000995951417227
17138139 8 18057876047557183730
17492 89 18339365274509923768
19301679 30 18337383847916134497
19315092 285 18410295839090984480
19319366 153 18267868272778704492
19841028 212 18262521382710402263
20775530 9 18187372008322600557
208703 8 18335985380156664198
21197605 99 18115866309181749478
21585483 132 17753348482700162327
23569914 152 17906210513528477479
23569917 315 18336538401216329070
25222932 49 18408884032049095078
345986 75 17676202451552886385
397830 11 8141807257550837725
404807 78 17630033867744437330
437795 163 18270115846893390914
4394409 98 17120312736528099389
439807 62 18343021116565748279
44062 13 18054508285642048044
444735 86 18342459239995429034
44880168 125 17095240362668807846
46194498 28 17772760368571956365
50009960 94 18128559200178094378
5104073 3 18114180882194571553
5309563 4 18335980887589210781
613672 6 17899708035166895884
6201460 15 17841719813409787555
6697151 62 17896059706054188369
7970288 3 18338517431155017867
86090 222 18198340658853296233
9831232 110 18056479453426515631

> <PUBCHEM_SHAPE_MULTIPOLES>
601.17
17.14
5.7
1.54
21.37
0.89
0.03
16.96
-1.9
-3.35
1.86
-0.73
0.93
-1.83

> <PUBCHEM_SHAPE_SELFOVERLAP>
1277.187

> <PUBCHEM_SHAPE_VOLUME>
337.4

> <PUBCHEM_COORDINATE_TYPE>
2
5
10

$$$$

