854208
  -OEChem-06241222473D

 26 25  0     1  0  0  0  0  0999 V2000
    1.3306   -1.8933   -0.8065 O   0  0  0  0  0  0  0  0  0  0  0  0
   -0.1010   -2.7089    0.7425 O   0  0  0  0  0  0  0  0  0  0  0  0
    2.4821    0.8056    1.1377 O   0  0  0  0  0  0  0  0  0  0  0  0
    0.7216    0.6206   -0.3717 N   0  0  0  0  0  0  0  0  0  0  0  0
    2.5119    1.9916   -0.8277 N   0  0  0  0  0  0  0  0  0  0  0  0
   -1.5984   -0.1416    0.1200 C   0  0  1  0  0  0  0  0  0  0  0  0
   -0.0809   -0.3152    0.3742 C   0  0  1  0  0  0  0  0  0  0  0  0
   -2.0377    1.3031    0.4428 C   0  0  0  0  0  0  0  0  0  0  0  0
   -2.0041   -0.5531   -1.3020 C   0  0  0  0  0  0  0  0  0  0  0  0
   -3.5343    1.5352    0.2843 C   0  0  0  0  0  0  0  0  0  0  0  0
    0.3647   -1.7519    0.1329 C   0  0  0  0  0  0  0  0  0  0  0  0
    1.9453    1.1079    0.0734 C   0  0  0  0  0  0  0  0  0  0  0  0
   -2.1280   -0.8167    0.8065 H   0  0  0  0  0  0  0  0  0  0  0  0
    0.1204   -0.1250    1.4371 H   0  0  0  0  0  0  0  0  0  0  0  0
   -1.7577    1.5370    1.4774 H   0  0  0  0  0  0  0  0  0  0  0  0
   -1.5116    2.0202   -0.1983 H   0  0  0  0  0  0  0  0  0  0  0  0
   -1.6068    0.1409   -2.0496 H   0  0  0  0  0  0  0  0  0  0  0  0
   -1.6482   -1.5578   -1.5497 H   0  0  0  0  0  0  0  0  0  0  0  0
   -3.0932   -0.5756   -1.4100 H   0  0  0  0  0  0  0  0  0  0  0  0
    0.4277    0.8722   -1.3104 H   0  0  0  0  0  0  0  0  0  0  0  0
   -4.1100    0.7989    0.8537 H   0  0  0  0  0  0  0  0  0  0  0  0
   -3.7986    2.5309    0.6552 H   0  0  0  0  0  0  0  0  0  0  0  0
   -3.8418    1.4859   -0.7643 H   0  0  0  0  0  0  0  0  0  0  0  0
    1.5904   -2.8315   -0.9270 H   0  0  0  0  0  0  0  0  0  0  0  0
    2.0528    2.2307   -1.7000 H   0  0  0  0  0  0  0  0  0  0  0  0
    3.4073    2.4304   -0.6407 H   0  0  0  0  0  0  0  0  0  0  0  0
  1 11  1  0  0  0  0
  1 24  1  0  0  0  0
  2 11  2  0  0  0  0
  3 12  2  0  0  0  0
  4  7  1  0  0  0  0
  4 12  1  0  0  0  0
  4 20  1  0  0  0  0
  5 12  1  0  0  0  0
  5 25  1  0  0  0  0
  5 26  1  0  0  0  0
  6  7  1  0  0  0  0
  6  8  1  0  0  0  0
  6  9  1  0  0  0  0
  6 13  1  0  0  0  0
  7 11  1  0  0  0  0
  7 14  1  0  0  0  0
  8 10  1  0  0  0  0
  8 15  1  0  0  0  0
  8 16  1  0  0  0  0
  9 17  1  0  0  0  0
  9 18  1  0  0  0  0
  9 19  1  0  0  0  0
 10 21  1  0  0  0  0
 10 22  1  0  0  0  0
 10 23  1  0  0  0  0
M  END
> <PUBCHEM_COMPOUND_CID>
854208

> <PUBCHEM_CONFORMER_RMSD>
0.6

> <PUBCHEM_CONFORMER_DIVERSEORDER>
1
34
23
31
18
9
7
27
25
29
16
6
14
32
33
12
26
3
8
17
15
10
13
4
30
24
20
11
5
35
21
28
2
22
19

> <PUBCHEM_MMFF94_PARTIAL_CHARGES>
12
1 -0.65
11 0.66
12 0.69
2 -0.57
20 0.37
24 0.5
25 0.37
26 0.37
3 -0.57
4 -0.73
5 -0.8
7 0.36

> <PUBCHEM_EFFECTIVE_ROTOR_COUNT>
5

> <PUBCHEM_PHARMACOPHORE_FEATURES>
8
1 1 acceptor
1 10 hydrophobe
1 2 acceptor
1 3 acceptor
1 4 donor
1 5 donor
1 9 hydrophobe
3 1 2 11 anion

> <PUBCHEM_HEAVY_ATOM_COUNT>
12

> <PUBCHEM_ATOM_DEF_STEREO_COUNT>
2

> <PUBCHEM_ATOM_UDEF_STEREO_COUNT>
0

> <PUBCHEM_BOND_DEF_STEREO_COUNT>
0

> <PUBCHEM_BOND_UDEF_STEREO_COUNT>
0

> <PUBCHEM_ISOTOPIC_ATOM_COUNT>
0

> <PUBCHEM_COMPONENT_COUNT>
1

> <PUBCHEM_CACTVS_TAUTO_COUNT>
3

> <PUBCHEM_CONFORMER_ID>
000D08C000000001

> <PUBCHEM_MMFF94_ENERGY>
17.1757

> <PUBCHEM_FEATURE_SELFOVERLAP>
40.707

> <PUBCHEM_SHAPE_FINGERPRINT>
13380535 21 18261382365318361369
15490181 8 18339644438657183062
15775835 57 18187086165216404737
161256 15 18052256494428437693
16945 1 17969792864847413231
19021347 4 18340487772591834027
19837323 101 18191860124344591600
21040471 1 18338233756759471272
21524375 3 18409453557143914833
23552423 10 18337398261330137271
2748010 2 18340473530701806795
305870 269 18339931501249098488
3250762 1 18195783250742474730
5084963 1 18057348122386379336
528862 383 18266463294328386489
7364860 26 18042409216903241083
81228 2 17762339115273277635

> <PUBCHEM_SHAPE_MULTIPOLES>
219.38
4.12
2.48
1
2.03
1.06
-0.14
-3.06
0.06
-1.03
0.09
-0.05
0.08
-0.41

> <PUBCHEM_SHAPE_SELFOVERLAP>
417.241

> <PUBCHEM_SHAPE_VOLUME>
134.8

> <PUBCHEM_COORDINATE_TYPE>
2
5
10

$$$$

