9925
  -OEChem-06261204112D

 44 46  0     0  0  0  0  0  0999 V2000
    2.8660    0.8724    0.0000 O   0  0  0  0  0  0  0  0  0  0  0  0
    6.4103   -0.9324    0.0000 N   0  0  0  0  0  0  0  0  0  0  0  0
    8.0102    2.7844    0.0000 N   0  0  0  0  0  0  0  0  0  0  0  0
    6.4103    0.6771    0.0000 C   0  0  0  0  0  0  0  0  0  0  0  0
    6.9939   -0.1276    0.0000 C   0  0  0  0  0  0  0  0  0  0  0  0
    5.4641    0.3724    0.0000 C   0  0  0  0  0  0  0  0  0  0  0  0
    5.4641   -0.6276    0.0000 C   0  0  0  0  0  0  0  0  0  0  0  0
    6.7210    1.6276    0.0000 C   0  0  0  0  0  0  0  0  0  0  0  0
    6.7210   -1.8829    0.0000 C   0  0  0  0  0  0  0  0  0  0  0  0
    4.5981    0.8724    0.0000 C   0  0  0  0  0  0  0  0  0  0  0  0
    4.5981   -1.1276    0.0000 C   0  0  0  0  0  0  0  0  0  0  0  0
    7.9939   -0.1276    0.0000 C   0  0  0  0  0  0  0  0  0  0  0  0
    7.6995    1.8338    0.0000 C   0  0  0  0  0  0  0  0  0  0  0  0
    7.6995   -2.0891    0.0000 C   0  0  0  0  0  0  0  0  0  0  0  0
    3.7320    0.3724    0.0000 C   0  0  0  0  0  0  0  0  0  0  0  0
    3.7320   -0.6276    0.0000 C   0  0  0  0  0  0  0  0  0  0  0  0
    8.0102   -3.0396    0.0000 C   0  0  0  0  0  0  0  0  0  0  0  0
    8.3673   -1.3448    0.0000 C   0  0  0  0  0  0  0  0  0  0  0  0
    8.9887   -3.2458    0.0000 C   0  0  0  0  0  0  0  0  0  0  0  0
    9.3458   -1.5510    0.0000 C   0  0  0  0  0  0  0  0  0  0  0  0
    9.6565   -2.5015    0.0000 C   0  0  0  0  0  0  0  0  0  0  0  0
    2.0000    0.3724    0.0000 C   0  0  0  0  0  0  0  0  0  0  0  0
    6.7004    2.2473    0.0000 H   0  0  0  0  0  0  0  0  0  0  0  0
    6.1072    1.7150    0.0000 H   0  0  0  0  0  0  0  0  0  0  0  0
    6.1072   -1.9702    0.0000 H   0  0  0  0  0  0  0  0  0  0  0  0
    6.7004   -2.5025    0.0000 H   0  0  0  0  0  0  0  0  0  0  0  0
    4.5981    1.4924    0.0000 H   0  0  0  0  0  0  0  0  0  0  0  0
    4.5981   -1.7476    0.0000 H   0  0  0  0  0  0  0  0  0  0  0  0
    7.9939   -0.7476    0.0000 H   0  0  0  0  0  0  0  0  0  0  0  0
    8.6139   -0.1276    0.0000 H   0  0  0  0  0  0  0  0  0  0  0  0
    7.9939    0.4924    0.0000 H   0  0  0  0  0  0  0  0  0  0  0  0
    7.7201    1.2142    0.0000 H   0  0  0  0  0  0  0  0  0  0  0  0
    8.3133    1.7465    0.0000 H   0  0  0  0  0  0  0  0  0  0  0  0
    3.1951   -0.9376    0.0000 H   0  0  0  0  0  0  0  0  0  0  0  0
    7.5961   -3.5011    0.0000 H   0  0  0  0  0  0  0  0  0  0  0  0
    8.1747   -0.7555    0.0000 H   0  0  0  0  0  0  0  0  0  0  0  0
    8.6168    2.9122    0.0000 H   0  0  0  0  0  0  0  0  0  0  0  0
    7.5961    3.2458    0.0000 H   0  0  0  0  0  0  0  0  0  0  0  0
    9.1813   -3.8352    0.0000 H   0  0  0  0  0  0  0  0  0  0  0  0
    9.7599   -1.0896    0.0000 H   0  0  0  0  0  0  0  0  0  0  0  0
   10.2632   -2.6294    0.0000 H   0  0  0  0  0  0  0  0  0  0  0  0
    1.6900    0.9093    0.0000 H   0  0  0  0  0  0  0  0  0  0  0  0
    1.4631    0.0624    0.0000 H   0  0  0  0  0  0  0  0  0  0  0  0
    2.3100   -0.1646    0.0000 H   0  0  0  0  0  0  0  0  0  0  0  0
  1 15  1  0  0  0  0
  1 22  1  0  0  0  0
  2  5  1  0  0  0  0
  2  7  1  0  0  0  0
  2  9  1  0  0  0  0
  3 13  1  0  0  0  0
  3 37  1  0  0  0  0
  3 38  1  0  0  0  0
  4  5  2  0  0  0  0
  4  6  1  0  0  0  0
  4  8  1  0  0  0  0
  5 12  1  0  0  0  0
  6  7  2  0  0  0  0
  6 10  1  0  0  0  0
  7 11  1  0  0  0  0
  8 13  1  0  0  0  0
  8 23  1  0  0  0  0
  8 24  1  0  0  0  0
  9 14  1  0  0  0  0
  9 25  1  0  0  0  0
  9 26  1  0  0  0  0
 10 15  2  0  0  0  0
 10 27  1  0  0  0  0
 11 16  2  0  0  0  0
 11 28  1  0  0  0  0
 12 29  1  0  0  0  0
 12 30  1  0  0  0  0
 12 31  1  0  0  0  0
 13 32  1  0  0  0  0
 13 33  1  0  0  0  0
 14 17  2  0  0  0  0
 14 18  1  0  0  0  0
 15 16  1  0  0  0  0
 16 34  1  0  0  0  0
 17 19  1  0  0  0  0
 17 35  1  0  0  0  0
 18 20  2  0  0  0  0
 18 36  1  0  0  0  0
 19 21  2  0  0  0  0
 19 39  1  0  0  0  0
 20 21  1  0  0  0  0
 20 40  1  0  0  0  0
 21 41  1  0  0  0  0
 22 42  1  0  0  0  0
 22 43  1  0  0  0  0
 22 44  1  0  0  0  0
M  END
> <PUBCHEM_COMPOUND_CID>
9925

> <PUBCHEM_COMPOUND_CANONICALIZED>
1

> <PUBCHEM_CACTVS_COMPLEXITY>
342

> <PUBCHEM_CACTVS_HBOND_ACCEPTOR>
2

> <PUBCHEM_CACTVS_HBOND_DONOR>
1

> <PUBCHEM_CACTVS_ROTATABLE_BOND>
5

> <PUBCHEM_CACTVS_SUBSKEYS>
AAADceB7IAAAAAAAAAAAAAAAAAAAAWAAAAAwYAAAAAAAAFgB9AAAHgAQAAAADAzBngYyxvNMFACgAyRiRACCiCAhIiAI2KA+bJgMJuLEsZuEMChk0BHI6Aew0PMOgEABAAACAAAAgAIAAAQAAAAAAAAAAA==

> <PUBCHEM_IUPAC_OPENEYE_NAME>
2-(1-benzyl-5-methoxy-2-methyl-indol-3-yl)ethanamine

> <PUBCHEM_IUPAC_CAS_NAME>
2-[5-methoxy-2-methyl-1-(phenylmethyl)-3-indolyl]ethanamine

> <PUBCHEM_IUPAC_NAME>
2-(1-benzyl-5-methoxy-2-methylindol-3-yl)ethanamine

> <PUBCHEM_IUPAC_SYSTEMATIC_NAME>
2-[5-methoxy-2-methyl-1-(phenylmethyl)indol-3-yl]ethanamine

> <PUBCHEM_IUPAC_TRADITIONAL_NAME>
2-(1-benzyl-5-methoxy-2-methyl-indol-3-yl)ethylamine

> <PUBCHEM_IUPAC_INCHI>
InChI=1S/C19H22N2O/c1-14-17(10-11-20)18-12-16(22-2)8-9-19(18)21(14)13-15-6-4-3-5-7-15/h3-9,12H,10-11,13,20H2,1-2H3

> <PUBCHEM_IUPAC_INCHIKEY>
RPSOLZRELOLSFM-UHFFFAOYSA-N

> <PUBCHEM_XLOGP3_AA>
3.3

> <PUBCHEM_EXACT_MASS>
294.173213

> <PUBCHEM_MOLECULAR_FORMULA>
C19H22N2O

> <PUBCHEM_MOLECULAR_WEIGHT>
294.39078

> <PUBCHEM_OPENEYE_CAN_SMILES>
CC1=C(C2=C(N1CC3=CC=CC=C3)C=CC(=C2)OC)CCN

> <PUBCHEM_OPENEYE_ISO_SMILES>
CC1=C(C2=C(N1CC3=CC=CC=C3)C=CC(=C2)OC)CCN

> <PUBCHEM_CACTVS_TPSA>
40.2

> <PUBCHEM_MONOISOTOPIC_WEIGHT>
294.173213

> <PUBCHEM_TOTAL_CHARGE>
0

> <PUBCHEM_HEAVY_ATOM_COUNT>
22

> <PUBCHEM_ATOM_DEF_STEREO_COUNT>
0

> <PUBCHEM_ATOM_UDEF_STEREO_COUNT>
0

> <PUBCHEM_BOND_DEF_STEREO_COUNT>
0

> <PUBCHEM_BOND_UDEF_STEREO_COUNT>
0

> <PUBCHEM_ISOTOPIC_ATOM_COUNT>
0

> <PUBCHEM_COMPONENT_COUNT>
1

> <PUBCHEM_CACTVS_TAUTO_COUNT>
1

> <PUBCHEM_COORDINATE_TYPE>
1
5
255

> <PUBCHEM_BONDANNOTATIONS>
10  15  8
11  16  8
14  17  8
14  18  8
15  16  8
17  19  8
18  20  8
19  21  8
2  5  8
2  7  8
20  21  8
4  5  8
4  6  8
6  10  8
6  7  8
7  11  8

$$$$

