47205741
  -OEChem-06241223003D

 33 35  0     0  0  0  0  0  0999 V2000
   -5.4549   -2.3113   -0.4184 F   0  0  0  0  0  0  0  0  0  0  0  0
    0.7799    2.8742    0.3792 O   0  0  0  0  0  0  0  0  0  0  0  0
   -1.7698    1.6135    0.4893 N   0  0  0  0  0  0  0  0  0  0  0  0
    1.6634    1.1129   -0.8433 N   0  0  0  0  0  0  0  0  0  0  0  0
    4.0802   -0.2895    0.2712 N   0  0  0  0  0  0  0  0  0  0  0  0
    4.8113   -2.3277   -0.2214 N   0  0  0  0  0  0  0  0  0  0  0  0
    3.0029    1.6433   -0.9574 C   0  0  0  0  0  0  0  0  0  0  0  0
    3.9058    1.2074    0.1941 C   0  0  0  0  0  0  0  0  0  0  0  0
   -0.6622    1.0956   -0.1265 C   0  0  0  0  0  0  0  0  0  0  0  0
   -2.3760   -0.3602   -0.3554 C   0  0  0  0  0  0  0  0  0  0  0  0
   -2.8313    0.7458    0.3654 C   0  0  0  0  0  0  0  0  0  0  0  0
   -1.0059   -0.1256   -0.6591 C   0  0  0  0  0  0  0  0  0  0  0  0
    0.6023    1.7593   -0.1734 C   0  0  0  0  0  0  0  0  0  0  0  0
   -3.2754   -1.4107   -0.6255 C   0  0  0  0  0  0  0  0  0  0  0  0
   -4.1464    0.8542    0.8314 C   0  0  0  0  0  0  0  0  0  0  0  0
    3.4756   -1.1295    1.1633 C   0  0  0  0  0  0  0  0  0  0  0  0
   -4.5938   -1.3162   -0.1653 C   0  0  0  0  0  0  0  0  0  0  0  0
   -5.0205   -0.2002    0.5517 C   0  0  0  0  0  0  0  0  0  0  0  0
    4.8723   -1.0538   -0.5397 C   0  0  0  0  0  0  0  0  0  0  0  0
    3.9423   -2.3818    0.8396 C   0  0  0  0  0  0  0  0  0  0  0  0
    3.5027    1.5105    1.1667 H   0  0  0  0  0  0  0  0  0  0  0  0
    4.9178    1.6119    0.0849 H   0  0  0  0  0  0  0  0  0  0  0  0
    3.4033    1.2941   -1.9150 H   0  0  0  0  0  0  0  0  0  0  0  0
    2.9506    2.7365   -0.9888 H   0  0  0  0  0  0  0  0  0  0  0  0
   -0.3620   -0.7971   -1.2107 H   0  0  0  0  0  0  0  0  0  0  0  0
   -1.8065    2.5038    0.9668 H   0  0  0  0  0  0  0  0  0  0  0  0
    1.5010    0.2081   -1.2722 H   0  0  0  0  0  0  0  0  0  0  0  0
   -2.9565   -2.2863   -1.1834 H   0  0  0  0  0  0  0  0  0  0  0  0
   -4.4795    1.7226    1.3897 H   0  0  0  0  0  0  0  0  0  0  0  0
    2.7898   -0.7787    1.9216 H   0  0  0  0  0  0  0  0  0  0  0  0
   -6.0490   -0.1476    0.8994 H   0  0  0  0  0  0  0  0  0  0  0  0
    5.4653   -0.6300   -1.3385 H   0  0  0  0  0  0  0  0  0  0  0  0
    3.6961   -3.3195    1.3160 H   0  0  0  0  0  0  0  0  0  0  0  0
  1 17  1  0  0  0  0
  2 13  2  0  0  0  0
  3  9  1  0  0  0  0
  3 11  1  0  0  0  0
  3 26  1  0  0  0  0
  4  7  1  0  0  0  0
  4 13  1  0  0  0  0
  4 27  1  0  0  0  0
  5  8  1  0  0  0  0
  5 16  1  0  0  0  0
  5 19  1  0  0  0  0
  6 19  2  0  0  0  0
  6 20  1  0  0  0  0
  7  8  1  0  0  0  0
  7 23  1  0  0  0  0
  7 24  1  0  0  0  0
  8 21  1  0  0  0  0
  8 22  1  0  0  0  0
  9 12  2  0  0  0  0
  9 13  1  0  0  0  0
 10 11  2  0  0  0  0
 10 12  1  0  0  0  0
 10 14  1  0  0  0  0
 11 15  1  0  0  0  0
 12 25  1  0  0  0  0
 14 17  2  0  0  0  0
 14 28  1  0  0  0  0
 15 18  2  0  0  0  0
 15 29  1  0  0  0  0
 16 20  2  0  0  0  0
 16 30  1  0  0  0  0
 17 18  1  0  0  0  0
 18 31  1  0  0  0  0
 19 32  1  0  0  0  0
 20 33  1  0  0  0  0
M  END
> <PUBCHEM_COMPOUND_CID>
47205741

> <PUBCHEM_CONFORMER_RMSD>
0.8

> <PUBCHEM_CONFORMER_DIVERSEORDER>
1
27
17
16
31
3
9
21
12
5
24
30
29
28
7
4
20
22
26
8
25
23
6
11
13
19
18
15
2
10
14

> <PUBCHEM_MMFF94_PARTIAL_CHARGES>
28
1 -0.19
11 -0.15
12 -0.15
13 0.71
14 -0.15
15 -0.15
16 -0.3
17 0.19
18 -0.15
19 0.04
2 -0.57
20 0.08
25 0.15
26 0.27
27 0.37
28 0.15
29 0.15
3 0.03
30 0.15
31 0.15
32 0.15
33 0.15
4 -0.73
5 0.05
6 -0.57
7 0.3
8 0.26
9 -0.24

> <PUBCHEM_EFFECTIVE_ROTOR_COUNT>
5

> <PUBCHEM_PHARMACOPHORE_FEATURES>
8
1 2 acceptor
1 3 cation
1 3 donor
1 4 donor
3 5 6 19 cation
5 3 9 10 11 12 rings
5 5 6 16 19 20 rings
6 10 11 14 15 17 18 rings

> <PUBCHEM_HEAVY_ATOM_COUNT>
20

> <PUBCHEM_ATOM_DEF_STEREO_COUNT>
0

> <PUBCHEM_ATOM_UDEF_STEREO_COUNT>
0

> <PUBCHEM_BOND_DEF_STEREO_COUNT>
0

> <PUBCHEM_BOND_UDEF_STEREO_COUNT>
0

> <PUBCHEM_ISOTOPIC_ATOM_COUNT>
0

> <PUBCHEM_COMPONENT_COUNT>
1

> <PUBCHEM_CACTVS_TAUTO_COUNT>
9

> <PUBCHEM_CONFORMER_ID>
02D04D6D00000001

> <PUBCHEM_MMFF94_ENERGY>
23.7139

> <PUBCHEM_FEATURE_SELFOVERLAP>
40.686

> <PUBCHEM_SHAPE_FINGERPRINT>
10062212 137 18333452023877303919
12107183 9 18192423302111154417
12410352 35 18409732858825008294
12596602 18 17821726109390917040
12839892 36 17676485034504584879
13167823 11 18410291397878483117
13533116 47 18338235947351028307
13551218 46 18409164411772520311
1420 369 18410856568435595422
14251740 57 18334012787734965734
14251764 30 18117550959018432350
14420673 8 17972590258805307190
15352361 1 18411701015025271154
15537594 2 18340756109532442414
17349148 13 17749390347617367965
17818456 19 18264763448999306913
17857418 61 18411421704548456455
1813 80 17775847917175308564
193927 3 18272923947196158874
20281475 54 18411698772683350501
20291156 8 18340771550214217096
20388580 30 18201717362552906492
20554085 129 16371282359715605491
20645477 70 18060422374409988644
21033648 29 14851597825533777377
21065198 48 18334852809811864329
21250096 35 18409450297379749232
22079108 93 5689595022157633549
22620623 9 16987731253655023284
22950370 63 18410571816440951618
23366157 5 17902233317372144697
235170 7 15626221346903934618
23559900 14 18410017598140667089
23596394 208 16415209987078569331
3004659 81 18273215305050762660
314194 84 18340481179864312603
345986 75 18339933734906536056
3472631 163 10447932775968614659
351380 3 18341328980960836558
44062 13 17915468404669235716
5104073 3 17968648308235594641
556388 4 18271812354105239962
559249 180 18410294757144223831
573450 72 18259981578883232113
6823239 73 17749933571023473558
7970288 3 18340772662500821586
960060 61 17704066300777082590

> <PUBCHEM_SHAPE_MULTIPOLES>
378.52
12.53
2.66
0.94
0.65
0.15
0.05
8.32
0.73
-1.63
0.07
-0.23
0.06
-1.3

> <PUBCHEM_SHAPE_SELFOVERLAP>
824.853

> <PUBCHEM_SHAPE_VOLUME>
208.9

> <PUBCHEM_COORDINATE_TYPE>
2
5
10

$$$$

