10530
  -OEChem-06261204392D

 32 32  0     1  0  0  0  0  0999 V2000
    4.0000   -2.6440    0.0000 S   0  0  0  0  0  0  0  0  0  0  0  0
    2.2679    0.3560    0.0000 O   0  0  0  0  0  0  0  0  0  0  0  0
    5.7321    0.3560    0.0000 O   0  0  0  0  0  0  0  0  0  0  0  0
    3.1340   -1.1440    0.0000 N   0  0  0  0  0  0  0  0  0  0  0  0
    4.8660   -1.1440    0.0000 N   0  0  0  0  0  0  0  0  0  0  0  0
    4.0000    0.3560    0.0000 C   0  0  3  0  0  0  0  0  0  0  0  0
    4.5000    1.2220    0.0000 C   0  0  0  0  0  0  0  0  0  0  0  0
    4.0000    2.0880    0.0000 C   0  0  0  0  0  0  0  0  0  0  0  0
    3.5000    1.2220    0.0000 C   0  0  0  0  0  0  0  0  0  0  0  0
    3.1340   -0.1440    0.0000 C   0  0  0  0  0  0  0  0  0  0  0  0
    4.8660   -0.1440    0.0000 C   0  0  0  0  0  0  0  0  0  0  0  0
    4.5000    2.9540    0.0000 C   0  0  0  0  0  0  0  0  0  0  0  0
    3.0000    2.0880    0.0000 C   0  0  0  0  0  0  0  0  0  0  0  0
    2.5000    1.2220    0.0000 C   0  0  0  0  0  0  0  0  0  0  0  0
    4.0000   -1.6440    0.0000 C   0  0  0  0  0  0  0  0  0  0  0  0
    2.0000    2.0880    0.0000 C   0  0  0  0  0  0  0  0  0  0  0  0
    4.9749    0.8235    0.0000 H   0  0  0  0  0  0  0  0  0  0  0  0
    4.9749    1.6205    0.0000 H   0  0  0  0  0  0  0  0  0  0  0  0
    4.6200    2.0880    0.0000 H   0  0  0  0  0  0  0  0  0  0  0  0
    4.0826    1.4340    0.0000 H   0  0  0  0  0  0  0  0  0  0  0  0
    3.3923    1.8326    0.0000 H   0  0  0  0  0  0  0  0  0  0  0  0
    5.0369    2.6440    0.0000 H   0  0  0  0  0  0  0  0  0  0  0  0
    4.8100    3.4910    0.0000 H   0  0  0  0  0  0  0  0  0  0  0  0
    3.9631    3.2640    0.0000 H   0  0  0  0  0  0  0  0  0  0  0  0
    3.0000    2.7080    0.0000 H   0  0  0  0  0  0  0  0  0  0  0  0
    2.3800    2.0880    0.0000 H   0  0  0  0  0  0  0  0  0  0  0  0
    3.0000    1.4680    0.0000 H   0  0  0  0  0  0  0  0  0  0  0  0
    2.5970   -1.4540    0.0000 H   0  0  0  0  0  0  0  0  0  0  0  0
    2.1900    0.6851    0.0000 H   0  0  0  0  0  0  0  0  0  0  0  0
    2.3100    2.6249    0.0000 H   0  0  0  0  0  0  0  0  0  0  0  0
    1.3800    2.0880    0.0000 H   0  0  0  0  0  0  0  0  0  0  0  0
    4.5369   -2.9540    0.0000 H   0  0  0  0  0  0  0  0  0  0  0  0
  1 15  1  0  0  0  0
  1 32  1  0  0  0  0
  2 10  2  0  0  0  0
  3 11  2  0  0  0  0
  4 10  1  0  0  0  0
  4 15  1  0  0  0  0
  4 28  1  0  0  0  0
  5 11  1  0  0  0  0
  5 15  2  0  0  0  0
  6  7  1  0  0  0  0
  6  9  1  0  0  0  0
  6 10  1  0  0  0  0
  6 11  1  0  0  0  0
  7  8  1  0  0  0  0
  7 17  1  0  0  0  0
  7 18  1  0  0  0  0
  8 12  1  0  0  0  0
  8 13  1  0  0  0  0
  8 19  1  0  0  0  0
  9 14  1  0  0  0  0
  9 20  1  0  0  0  0
  9 21  1  0  0  0  0
 12 22  1  0  0  0  0
 12 23  1  0  0  0  0
 12 24  1  0  0  0  0
 13 25  1  0  0  0  0
 13 26  1  0  0  0  0
 13 27  1  0  0  0  0
 14 16  2  0  0  0  0
 14 29  1  0  0  0  0
 16 30  1  0  0  0  0
 16 31  1  0  0  0  0
M  END
> <PUBCHEM_COMPOUND_CID>
10530

> <PUBCHEM_COMPOUND_CANONICALIZED>
1

> <PUBCHEM_CACTVS_COMPLEXITY>
363

> <PUBCHEM_CACTVS_HBOND_ACCEPTOR>
3

> <PUBCHEM_CACTVS_HBOND_DONOR>
2

> <PUBCHEM_CACTVS_ROTATABLE_BOND>
4

> <PUBCHEM_CACTVS_SUBSKEYS>
AAADceBzMABAAAAAAAAAAAAAAAAAAAAAAAAgAAAAAAAAAAAAAAAAHgQQAAAADwCBgAADAALAAASoACFSNAAAEAEgAAAJAAEAAAgAABoIyQAEAAAAgAAAAAEYAAAPAAAAAAAAAAAAAAAAAAAAAAAAAAAAAA==

> <PUBCHEM_IUPAC_OPENEYE_NAME>
5-allyl-5-isobutyl-2-sulfanyl-1H-pyrimidine-4,6-dione

> <PUBCHEM_IUPAC_CAS_NAME>
2-mercapto-5-(2-methylpropyl)-5-prop-2-enyl-1H-pyrimidine-4,6-dione

> <PUBCHEM_IUPAC_NAME>
5-(2-methylpropyl)-5-prop-2-enyl-2-sulfanyl-1H-pyrimidine-4,6-dione

> <PUBCHEM_IUPAC_SYSTEMATIC_NAME>
5-(2-methylpropyl)-5-prop-2-enyl-2-sulfanyl-1H-pyrimidine-4,6-dione

> <PUBCHEM_IUPAC_TRADITIONAL_NAME>
5-allyl-5-isobutyl-2-mercapto-1H-pyrimidine-4,6-quinone

> <PUBCHEM_IUPAC_INCHI>
InChI=1S/C11H16N2O2S/c1-4-5-11(6-7(2)3)8(14)12-10(16)13-9(11)15/h4,7H,1,5-6H2,2-3H3,(H2,12,13,14,15,16)

> <PUBCHEM_IUPAC_INCHIKEY>
QHJOIAXHOQIPJT-UHFFFAOYSA-N

> <PUBCHEM_XLOGP3>
2.5

> <PUBCHEM_EXACT_MASS>
240.093249

> <PUBCHEM_MOLECULAR_FORMULA>
C11H16N2O2S

> <PUBCHEM_MOLECULAR_WEIGHT>
240.32194

> <PUBCHEM_OPENEYE_CAN_SMILES>
CC(C)CC1(C(=O)NC(=NC1=O)S)CC=C

> <PUBCHEM_OPENEYE_ISO_SMILES>
CC(C)CC1(C(=O)NC(=NC1=O)S)CC=C

> <PUBCHEM_CACTVS_TPSA>
59.5

> <PUBCHEM_MONOISOTOPIC_WEIGHT>
240.093249

> <PUBCHEM_TOTAL_CHARGE>
0

> <PUBCHEM_HEAVY_ATOM_COUNT>
16

> <PUBCHEM_ATOM_DEF_STEREO_COUNT>
0

> <PUBCHEM_ATOM_UDEF_STEREO_COUNT>
1

> <PUBCHEM_BOND_DEF_STEREO_COUNT>
0

> <PUBCHEM_BOND_UDEF_STEREO_COUNT>
0

> <PUBCHEM_ISOTOPIC_ATOM_COUNT>
0

> <PUBCHEM_COMPONENT_COUNT>
1

> <PUBCHEM_CACTVS_TAUTO_COUNT>
5

> <PUBCHEM_COORDINATE_TYPE>
1
5
255

> <PUBCHEM_BONDANNOTATIONS>
6  7  3

$$$$

