4562
  -OEChem-06261200133D

 79 79  0     0  0  0  0  0  0999 V2000
    2.2106    0.7421   -2.2582 O   0  0  0  0  0  0  0  0  0  0  0  0
    3.0619   -4.5552   -0.9898 O   0  0  0  0  0  0  0  0  0  0  0  0
   -0.6566    0.4348    1.8000 C   0  0  0  0  0  0  0  0  0  0  0  0
   -0.0525   -0.9076    1.3811 C   0  0  0  0  0  0  0  0  0  0  0  0
   -2.8133   -3.5671    0.3940 C   0  0  0  0  0  0  0  0  0  0  0  0
   -1.8611   -2.7078    1.1964 C   0  0  0  0  0  0  0  0  0  0  0  0
   -4.2453   -3.0209    0.3230 C   0  0  0  0  0  0  0  0  0  0  0  0
    0.3727    1.3374    2.4415 C   0  0  0  0  0  0  0  0  0  0  0  0
    2.2547    3.0776    2.3314 C   0  0  0  0  0  0  0  0  0  0  0  0
   -1.0571   -1.7665    0.6646 C   0  0  0  0  0  0  0  0  0  0  0  0
    3.6565    2.4486    2.2759 C   0  0  0  0  0  0  0  0  0  0  0  0
    1.1865    2.1775    1.7732 C   0  0  0  0  0  0  0  0  0  0  0  0
   -4.7770   -0.5256    0.0233 C   0  0  0  0  0  0  0  0  0  0  0  0
   -4.3277   -1.7162   -0.4176 C   0  0  0  0  0  0  0  0  0  0  0  0
   -4.7623    0.6745   -0.9057 C   0  0  0  0  0  0  0  0  0  0  0  0
    4.0646    1.9512    0.9056 C   0  0  0  0  0  0  0  0  0  0  0  0
   -1.8145   -2.9997    2.6732 C   0  0  0  0  0  0  0  0  0  0  0  0
   -3.8432    1.8063   -0.4301 C   0  0  0  0  0  0  0  0  0  0  0  0
    0.4751    1.2194    3.9412 C   0  0  0  0  0  0  0  0  0  0  0  0
    4.2645    0.6593    0.5798 C   0  0  0  0  0  0  0  0  0  0  0  0
    4.5776    0.0943   -0.7776 C   0  0  0  0  0  0  0  0  0  0  0  0
   -5.2855   -0.2512    1.4109 C   0  0  0  0  0  0  0  0  0  0  0  0
    4.1479    3.0147   -0.1605 C   0  0  0  0  0  0  0  0  0  0  0  0
   -3.7823    2.9403   -1.4164 C   0  0  0  0  0  0  0  0  0  0  0  0
    3.5673   -0.9386   -1.2187 C   0  0  0  0  0  0  0  0  0  0  0  0
   -2.7076    3.4118   -2.0757 C   0  0  0  0  0  0  0  0  0  0  0  0
    2.4331   -0.5637   -1.9388 C   0  0  0  0  0  0  0  0  0  0  0  0
    3.7789   -2.2799   -0.8997 C   0  0  0  0  0  0  0  0  0  0  0  0
   -1.3065    2.8891   -1.9356 C   0  0  0  0  0  0  0  0  0  0  0  0
   -2.8483    4.5684   -3.0291 C   0  0  0  0  0  0  0  0  0  0  0  0
    2.8564   -3.2462   -1.3009 C   0  0  0  0  0  0  0  0  0  0  0  0
    1.5104   -1.5298   -2.3399 C   0  0  0  0  0  0  0  0  0  0  0  0
    1.7222   -2.8711   -2.0210 C   0  0  0  0  0  0  0  0  0  0  0  0
   -1.5095    0.2933    2.4753 H   0  0  0  0  0  0  0  0  0  0  0  0
   -1.0527    0.9405    0.9133 H   0  0  0  0  0  0  0  0  0  0  0  0
    0.3792   -1.4287    2.2426 H   0  0  0  0  0  0  0  0  0  0  0  0
    0.7907   -0.7390    0.7003 H   0  0  0  0  0  0  0  0  0  0  0  0
   -2.4218   -3.6871   -0.6255 H   0  0  0  0  0  0  0  0  0  0  0  0
   -2.8320   -4.5789    0.8186 H   0  0  0  0  0  0  0  0  0  0  0  0
   -4.6581   -2.9539    1.3330 H   0  0  0  0  0  0  0  0  0  0  0  0
   -4.8680   -3.7483   -0.2125 H   0  0  0  0  0  0  0  0  0  0  0  0
    2.2446    4.0083    1.7495 H   0  0  0  0  0  0  0  0  0  0  0  0
    2.0321    3.3877    3.3576 H   0  0  0  0  0  0  0  0  0  0  0  0
   -1.1258   -1.5895   -0.4077 H   0  0  0  0  0  0  0  0  0  0  0  0
    3.6982    1.6195    2.9947 H   0  0  0  0  0  0  0  0  0  0  0  0
    4.3944    3.1827    2.6224 H   0  0  0  0  0  0  0  0  0  0  0  0
    1.0789    2.2126    0.6895 H   0  0  0  0  0  0  0  0  0  0  0  0
   -3.9818   -1.7768   -1.4494 H   0  0  0  0  0  0  0  0  0  0  0  0
   -5.7897    1.0494   -1.0053 H   0  0  0  0  0  0  0  0  0  0  0  0
   -4.4580    0.3712   -1.9166 H   0  0  0  0  0  0  0  0  0  0  0  0
   -4.2136    2.2150    0.5179 H   0  0  0  0  0  0  0  0  0  0  0  0
   -2.8554    1.3964   -0.2211 H   0  0  0  0  0  0  0  0  0  0  0  0
   -2.8328   -3.0677    3.0718 H   0  0  0  0  0  0  0  0  0  0  0  0
   -1.3164   -3.9584    2.8501 H   0  0  0  0  0  0  0  0  0  0  0  0
   -1.3082   -2.2359    3.2677 H   0  0  0  0  0  0  0  0  0  0  0  0
   -0.3889    1.6992    4.4125 H   0  0  0  0  0  0  0  0  0  0  0  0
    0.4772    0.1634    4.2340 H   0  0  0  0  0  0  0  0  0  0  0  0
    1.3824    1.6522    4.3677 H   0  0  0  0  0  0  0  0  0  0  0  0
    4.1775   -0.0762    1.3792 H   0  0  0  0  0  0  0  0  0  0  0  0
    5.5701   -0.3734   -0.7289 H   0  0  0  0  0  0  0  0  0  0  0  0
    4.6697    0.8552   -1.5576 H   0  0  0  0  0  0  0  0  0  0  0  0
   -6.2228    0.3137    1.3650 H   0  0  0  0  0  0  0  0  0  0  0  0
   -5.4964   -1.1583    1.9811 H   0  0  0  0  0  0  0  0  0  0  0  0
   -4.5551    0.3343    1.9779 H   0  0  0  0  0  0  0  0  0  0  0  0
    4.9384    2.8227   -0.8912 H   0  0  0  0  0  0  0  0  0  0  0  0
    4.3939    3.9846    0.2867 H   0  0  0  0  0  0  0  0  0  0  0  0
    3.1906    3.1176   -0.6805 H   0  0  0  0  0  0  0  0  0  0  0  0
   -4.7431    3.4212   -1.5979 H   0  0  0  0  0  0  0  0  0  0  0  0
    4.6619   -2.5735   -0.3368 H   0  0  0  0  0  0  0  0  0  0  0  0
   -1.2299    1.9793   -1.3385 H   0  0  0  0  0  0  0  0  0  0  0  0
   -0.6667    3.6474   -1.4723 H   0  0  0  0  0  0  0  0  0  0  0  0
   -0.8952    2.6514   -2.9229 H   0  0  0  0  0  0  0  0  0  0  0  0
   -2.2190    5.4042   -2.7059 H   0  0  0  0  0  0  0  0  0  0  0  0
   -3.8783    4.9346   -3.0939 H   0  0  0  0  0  0  0  0  0  0  0  0
   -2.5391    4.2691   -4.0359 H   0  0  0  0  0  0  0  0  0  0  0  0
    0.6213   -1.2515   -2.8995 H   0  0  0  0  0  0  0  0  0  0  0  0
    0.9989   -3.6189   -2.3347 H   0  0  0  0  0  0  0  0  0  0  0  0
    1.3711    0.8118   -2.7444 H   0  0  0  0  0  0  0  0  0  0  0  0
    3.8926   -4.6339   -0.4899 H   0  0  0  0  0  0  0  0  0  0  0  0
  1 27  1  0  0  0  0
  1 78  1  0  0  0  0
  2 31  1  0  0  0  0
  2 79  1  0  0  0  0
  3  4  1  0  0  0  0
  3  8  1  0  0  0  0
  3 34  1  0  0  0  0
  3 35  1  0  0  0  0
  4 10  1  0  0  0  0
  4 36  1  0  0  0  0
  4 37  1  0  0  0  0
  5  6  1  0  0  0  0
  5  7  1  0  0  0  0
  5 38  1  0  0  0  0
  5 39  1  0  0  0  0
  6 10  2  0  0  0  0
  6 17  1  0  0  0  0
  7 14  1  0  0  0  0
  7 40  1  0  0  0  0
  7 41  1  0  0  0  0
  8 12  2  0  0  0  0
  8 19  1  0  0  0  0
  9 11  1  0  0  0  0
  9 12  1  0  0  0  0
  9 42  1  0  0  0  0
  9 43  1  0  0  0  0
 10 44  1  0  0  0  0
 11 16  1  0  0  0  0
 11 45  1  0  0  0  0
 11 46  1  0  0  0  0
 12 47  1  0  0  0  0
 13 14  2  0  0  0  0
 13 15  1  0  0  0  0
 13 22  1  0  0  0  0
 14 48  1  0  0  0  0
 15 18  1  0  0  0  0
 15 49  1  0  0  0  0
 15 50  1  0  0  0  0
 16 20  2  0  0  0  0
 16 23  1  0  0  0  0
 17 53  1  0  0  0  0
 17 54  1  0  0  0  0
 17 55  1  0  0  0  0
 18 24  1  0  0  0  0
 18 51  1  0  0  0  0
 18 52  1  0  0  0  0
 19 56  1  0  0  0  0
 19 57  1  0  0  0  0
 19 58  1  0  0  0  0
 20 21  1  0  0  0  0
 20 59  1  0  0  0  0
 21 25  1  0  0  0  0
 21 60  1  0  0  0  0
 21 61  1  0  0  0  0
 22 62  1  0  0  0  0
 22 63  1  0  0  0  0
 22 64  1  0  0  0  0
 23 65  1  0  0  0  0
 23 66  1  0  0  0  0
 23 67  1  0  0  0  0
 24 26  2  0  0  0  0
 24 68  1  0  0  0  0
 25 27  2  0  0  0  0
 25 28  1  0  0  0  0
 26 29  1  0  0  0  0
 26 30  1  0  0  0  0
 27 32  1  0  0  0  0
 28 31  2  0  0  0  0
 28 69  1  0  0  0  0
 29 70  1  0  0  0  0
 29 71  1  0  0  0  0
 29 72  1  0  0  0  0
 30 73  1  0  0  0  0
 30 74  1  0  0  0  0
 30 75  1  0  0  0  0
 31 33  1  0  0  0  0
 32 33  2  0  0  0  0
 32 76  1  0  0  0  0
 33 77  1  0  0  0  0
M  END
> <PUBCHEM_COMPOUND_CID>
4562

> <PUBCHEM_CONFORMER_RMSD>
2

> <PUBCHEM_CONFORMER_DIVERSEORDER>
3
101
23
84
122
11
22
147
140
123
29
128
89
141
127
118
103
2
50
104
131
98
79
114
71
49
126
125
117
19
67
115
107
62
97
43
109
110
66
27
25
135
65
106
108
45
155
105
82
112
95
156
91
10
64
157
138
1
18
152
59
137
153
17
145
102
139
75
93
146
42
116
46
94
31
80
16
38
111
55
130
54
143
53
76
149
37
150
36
52
56
129
70
74
88
124
81
133
148
40
13
132
134
60
136
30
90
92
63
85
154
87
99
39
120
78
69
33
72
57
26
48
21
151
96
58
83
73
8
32
44
142
6
14
61
100
9
34
121
119
144
51
86
113
68
41
47
15
20
24
28
35
7
4
77
12
5

> <PUBCHEM_MMFF94_PARTIAL_CHARGES>
43
1 -0.53
10 -0.29
11 0.14
12 -0.29
13 -0.28
14 -0.29
15 0.14
16 -0.28
17 0.14
18 0.14
19 0.14
2 -0.53
20 -0.29
21 0.28
22 0.14
23 0.14
24 -0.29
25 -0.14
26 -0.28
27 0.08
28 -0.15
29 0.14
3 0.14
30 0.14
31 0.08
32 -0.15
33 -0.15
4 0.14
44 0.15
47 0.15
48 0.15
5 0.14
59 0.15
6 -0.28
68 0.15
69 0.15
7 0.14
76 0.15
77 0.15
78 0.45
79 0.45
8 -0.28
9 0.14

> <PUBCHEM_EFFECTIVE_ROTOR_COUNT>
14

> <PUBCHEM_PHARMACOPHORE_FEATURES>
12
1 1 donor
1 17 hydrophobe
1 19 hydrophobe
1 2 donor
1 22 hydrophobe
1 23 hydrophobe
3 26 29 30 hydrophobe
4 13 15 18 24 hydrophobe
4 3 4 8 10 hydrophobe
4 5 6 7 14 hydrophobe
4 9 11 12 16 hydrophobe
6 25 27 28 31 32 33 rings

> <PUBCHEM_HEAVY_ATOM_COUNT>
33

> <PUBCHEM_ATOM_DEF_STEREO_COUNT>
0

> <PUBCHEM_ATOM_UDEF_STEREO_COUNT>
0

> <PUBCHEM_BOND_DEF_STEREO_COUNT>
0

> <PUBCHEM_BOND_UDEF_STEREO_COUNT>
4

> <PUBCHEM_ISOTOPIC_ATOM_COUNT>
0

> <PUBCHEM_COMPONENT_COUNT>
1

> <PUBCHEM_CACTVS_TAUTO_COUNT>
13

> <PUBCHEM_CONFORMER_ID>
000011D200000003

> <PUBCHEM_MMFF94_ENERGY>
43.6531

> <PUBCHEM_FEATURE_SELFOVERLAP>
60.928

> <PUBCHEM_SHAPE_FINGERPRINT>
11285246 1 17687739858622056468
11828532 37 17342658860690618123
13383661 66 16814932814452515919
14251757 17 18336829804880632273
15001296 14 17560513006393783189
15975801 100 17488470839578046268
16067690 210 17702668730961474489
17977149 70 18271811267109411089
21987440 362 16908375243582926988
3298306 158 17679300767544875714
550186 7 18055648221886954080

> <PUBCHEM_SHAPE_MULTIPOLES>
667.39
10.55
6.11
3.55
3.8
0.02
-1.34
0.85
1.69
1.48
2.84
-0.82
2.15
6.63

> <PUBCHEM_SHAPE_SELFOVERLAP>
1321.187

> <PUBCHEM_SHAPE_VOLUME>
396.8

> <PUBCHEM_COORDINATE_TYPE>
2
5
10

$$$$

