17396323
  -OEChem-06241222553D

 46 47  0     1  0  0  0  0  0999 V2000
   -1.5749   -0.7475   -0.9591 O   0  0  0  0  0  0  0  0  0  0  0  0
    0.3002    1.1456   -1.2987 O   0  0  0  0  0  0  0  0  0  0  0  0
    5.7979    1.6509   -0.0518 O   0  0  0  0  0  0  0  0  0  0  0  0
    6.1975    0.0229    1.5258 O   0  0  0  0  0  0  0  0  0  0  0  0
   -1.3562   -1.2763    1.2706 O   0  0  0  0  0  0  0  0  0  0  0  0
   -7.2743    0.9584    0.6384 O   0  0  0  0  0  0  0  0  0  0  0  0
    2.5479   -1.4530   -0.1600 N   0  0  0  0  0  0  0  0  0  0  0  0
   -5.3720    0.5369   -0.6221 N   0  0  0  0  0  0  0  0  0  0  0  0
    2.0663   -0.2131   -0.4898 C   0  0  0  0  0  0  0  0  0  0  0  0
    3.0623    0.7058   -0.2432 C   0  0  0  0  0  0  0  0  0  0  0  0
    4.1823   -0.0069    0.2519 C   0  0  0  0  0  0  0  0  0  0  0  0
    3.8366   -1.3395    0.2925 C   0  0  0  0  0  0  0  0  0  0  0  0
    0.7068    0.0163   -1.0117 C   0  0  0  0  0  0  0  0  0  0  0  0
   -0.2313   -1.1778   -1.2027 C   0  0  2  0  0  0  0  0  0  0  0  0
    2.9795    2.1664   -0.4551 C   0  0  0  0  0  0  0  0  0  0  0  0
    4.5987   -2.5301    0.7170 C   0  0  0  0  0  0  0  0  0  0  0  0
   -0.1744   -1.6969   -2.6306 C   0  0  0  0  0  0  0  0  0  0  0  0
    5.4584    0.5176    0.6491 C   0  0  0  0  0  0  0  0  0  0  0  0
   -2.0336   -0.8439    0.3272 C   0  0  0  0  0  0  0  0  0  0  0  0
   -3.4047   -0.3794    0.4435 C   0  0  0  0  0  0  0  0  0  0  0  0
   -4.0646   -0.3928    1.6673 C   0  0  0  0  0  0  0  0  0  0  0  0
    7.0526    2.2687    0.2541 C   0  0  0  0  0  0  0  0  0  0  0  0
   -4.0963    0.0909   -0.6613 C   0  0  0  0  0  0  0  0  0  0  0  0
   -5.3775    0.0581    1.7477 C   0  0  0  0  0  0  0  0  0  0  0  0
   -5.9809    0.5088    0.5847 C   0  0  0  0  0  0  0  0  0  0  0  0
   -7.8463    1.4098   -0.5835 C   0  0  0  0  0  0  0  0  0  0  0  0
    2.0476   -2.3265   -0.2448 H   0  0  0  0  0  0  0  0  0  0  0  0
    0.0187   -1.9961   -0.5218 H   0  0  0  0  0  0  0  0  0  0  0  0
    3.6048    2.7164    0.2548 H   0  0  0  0  0  0  0  0  0  0  0  0
    1.9675    2.5503   -0.3015 H   0  0  0  0  0  0  0  0  0  0  0  0
    3.2960    2.4253   -1.4704 H   0  0  0  0  0  0  0  0  0  0  0  0
    5.5833   -2.5503    0.2388 H   0  0  0  0  0  0  0  0  0  0  0  0
    4.0838   -3.4595    0.4518 H   0  0  0  0  0  0  0  0  0  0  0  0
    4.7432   -2.5245    1.8021 H   0  0  0  0  0  0  0  0  0  0  0  0
   -0.8813   -2.5217   -2.7691 H   0  0  0  0  0  0  0  0  0  0  0  0
    0.8305   -2.0460   -2.8873 H   0  0  0  0  0  0  0  0  0  0  0  0
   -0.4551   -0.9138   -3.3442 H   0  0  0  0  0  0  0  0  0  0  0  0
   -3.5733   -0.7503    2.5680 H   0  0  0  0  0  0  0  0  0  0  0  0
    7.0683    2.5894    1.2997 H   0  0  0  0  0  0  0  0  0  0  0  0
    7.8731    1.5746    0.0502 H   0  0  0  0  0  0  0  0  0  0  0  0
    7.1651    3.1471   -0.3866 H   0  0  0  0  0  0  0  0  0  0  0  0
   -3.6596    0.1371   -1.6538 H   0  0  0  0  0  0  0  0  0  0  0  0
   -5.9063    0.0543    2.6946 H   0  0  0  0  0  0  0  0  0  0  0  0
   -7.2960    2.2692   -0.9810 H   0  0  0  0  0  0  0  0  0  0  0  0
   -7.8902    0.6001   -1.3195 H   0  0  0  0  0  0  0  0  0  0  0  0
   -8.8709    1.7326   -0.3764 H   0  0  0  0  0  0  0  0  0  0  0  0
  1 14  1  0  0  0  0
  1 19  1  0  0  0  0
  2 13  2  0  0  0  0
  3 18  1  0  0  0  0
  3 22  1  0  0  0  0
  4 18  2  0  0  0  0
  5 19  2  0  0  0  0
  6 25  1  0  0  0  0
  6 26  1  0  0  0  0
  7  9  1  0  0  0  0
  7 12  1  0  0  0  0
  7 27  1  0  0  0  0
  8 23  1  0  0  0  0
  8 25  2  0  0  0  0
  9 10  2  0  0  0  0
  9 13  1  0  0  0  0
 10 11  1  0  0  0  0
 10 15  1  0  0  0  0
 11 12  2  0  0  0  0
 11 18  1  0  0  0  0
 12 16  1  0  0  0  0
 13 14  1  0  0  0  0
 14 17  1  0  0  0  0
 14 28  1  0  0  0  0
 15 29  1  0  0  0  0
 15 30  1  0  0  0  0
 15 31  1  0  0  0  0
 16 32  1  0  0  0  0
 16 33  1  0  0  0  0
 16 34  1  0  0  0  0
 17 35  1  0  0  0  0
 17 36  1  0  0  0  0
 17 37  1  0  0  0  0
 19 20  1  0  0  0  0
 20 21  1  0  0  0  0
 20 23  2  0  0  0  0
 21 24  2  0  0  0  0
 21 38  1  0  0  0  0
 22 39  1  0  0  0  0
 22 40  1  0  0  0  0
 22 41  1  0  0  0  0
 23 42  1  0  0  0  0
 24 25  1  0  0  0  0
 24 43  1  0  0  0  0
 26 44  1  0  0  0  0
 26 45  1  0  0  0  0
 26 46  1  0  0  0  0
M  END
> <PUBCHEM_COMPOUND_CID>
17396323

> <PUBCHEM_CONFORMER_RMSD>
1.2

> <PUBCHEM_CONFORMER_DIVERSEORDER>
1
18
38
26
92
75
97
25
78
58
41
10
13
51
28
34
42
44
71
83
100
85
46
98
68
63
49
33
12
14
69
37
90
79
39
57
32
45
60
30
16
101
3
23
59
95
48
61
52
76
21
50
89
47
6
104
87
11
27
99
96
77
31
62
17
72
66
94
2
88
82
64
20
7
22
53
19
55
84
56
43
35
73
103
93
54
91
29
80
65
74
40
15
4
9
67
70
5
86
36
8
81
24
102

> <PUBCHEM_MMFF94_PARTIAL_CHARGES>
29
1 -0.43
10 -0.18
11 -0.09
12 -0.33
13 0.59
14 0.34
15 0.18
16 0.18
18 0.81
19 0.63
2 -0.57
20 0.09
21 -0.15
22 0.28
23 0.16
24 -0.15
25 0.39
26 0.28
27 0.27
3 -0.43
38 0.15
4 -0.57
42 0.15
43 0.15
5 -0.57
6 -0.36
7 0.03
8 -0.62
9 -0.24

> <PUBCHEM_EFFECTIVE_ROTOR_COUNT>
8

> <PUBCHEM_PHARMACOPHORE_FEATURES>
7
1 2 acceptor
1 4 acceptor
1 5 acceptor
1 7 cation
1 7 donor
5 7 9 10 11 12 rings
6 8 20 21 23 24 25 rings

> <PUBCHEM_HEAVY_ATOM_COUNT>
26

> <PUBCHEM_ATOM_DEF_STEREO_COUNT>
0

> <PUBCHEM_ATOM_UDEF_STEREO_COUNT>
1

> <PUBCHEM_BOND_DEF_STEREO_COUNT>
0

> <PUBCHEM_BOND_UDEF_STEREO_COUNT>
0

> <PUBCHEM_ISOTOPIC_ATOM_COUNT>
0

> <PUBCHEM_COMPONENT_COUNT>
1

> <PUBCHEM_CACTVS_TAUTO_COUNT>
18

> <PUBCHEM_CONFORMER_ID>
0109726300000001

> <PUBCHEM_MMFF94_ENERGY>
62.4675

> <PUBCHEM_FEATURE_SELFOVERLAP>
35.52

> <PUBCHEM_SHAPE_FINGERPRINT>
10 15 18060138730232161268
10319926 262 16988550304788333745
10670039 82 15791715422132641032
11089746 13 17531249414067871080
12236239 1 18113622270020871374
12596602 18 18409726248891718683
13533116 47 18270116941208147002
13583140 156 18337107843957508635
13685833 64 13326850028876684197
13878862 14 18335437763020244157
14251764 18 18271526412166992261
14251764 30 10663816369534074609
14341114 176 18343580759230717318
14347424 109 18342744065357899562
15003188 100 5833983967090860442
15082195 135 5761356873548834658
15142383 8 18131354124317788860
15183329 4 17313103060137603265
15188451 53 16844720921016684419
15348495 7 17703501104645650625
15475509 35 16414931854615187298
1813 80 14908176451921199943
20157964 124 18260264183325682295
20511986 3 18260277317013712298
20554085 129 15792025497371142862
21033648 29 17632581573925082087
21130935 74 18201152243815613755
21267235 1 11383838177311578352
21298829 104 17749099024555428745
21315763 191 12751234801046708225
21344244 246 8357999761759740812
21521239 73 7709462723472017724
21637258 2 12679183777881572427
21774942 28 18119811563652210901
21859007 373 17488753405765963997
22122407 14 18262225643123701497
22950370 63 13183017419557948695
23035841 295 11815893457996123985
23424782 7 6194546819582566413
2767999 5 17530684316340450201
312425 54 17203609255125578193
3472631 163 16660369138859779280
351380 3 12967128302885637169
4073 2 17917142806249271970
4325135 7 14923946756521204009
4340502 62 17775005687331985386
5104073 3 17917143884417496737
5207 217 15430039851178542503
54039377 194 11455899070195964384
7970288 3 13398637129990352336

> <PUBCHEM_SHAPE_MULTIPOLES>
489.89
19.51
1.99
1.58
13.19
0.01
0.27
11.14
-5.98
-3.21
0.28
0.96
-0.59
-0.24

> <PUBCHEM_SHAPE_SELFOVERLAP>
1038.485

> <PUBCHEM_SHAPE_VOLUME>
275.2

> <PUBCHEM_COORDINATE_TYPE>
2
5
10

$$$$

