17396114
  -OEChem-06241222543D

 52 56  0     1  0  0  0  0  0999 V2000
    0.0684   -0.9807    0.9499 O   0  0  0  0  0  0  0  0  0  0  0  0
    3.8890    1.8898   -1.5770 O   0  0  0  0  0  0  0  0  0  0  0  0
    5.0460    3.0391    0.8002 O   0  0  0  0  0  0  0  0  0  0  0  0
   -1.5190    0.3422   -1.8600 O   0  0  0  0  0  0  0  0  0  0  0  0
   -6.7872   -0.7076    0.6992 O   0  0  0  0  0  0  0  0  0  0  0  0
   -7.0854    1.6826    0.7758 O   0  0  0  0  0  0  0  0  0  0  0  0
    1.6391   -2.3507   -0.0565 N   0  0  0  0  0  0  0  0  0  0  0  0
   -1.8511   -1.5719   -0.5898 N   0  0  0  0  0  0  0  0  0  0  0  0
    2.7054   -2.1297    0.9272 C   0  0  1  0  0  0  0  0  0  0  0  0
    3.7264   -3.2322    0.6184 C   0  0  0  0  0  0  0  0  0  0  0  0
    3.5458   -3.4863   -0.8745 C   0  0  0  0  0  0  0  0  0  0  0  0
    2.0481   -3.3146   -1.0755 C   0  0  0  0  0  0  0  0  0  0  0  0
    3.3176   -0.7419    0.8757 C   0  0  0  0  0  0  0  0  0  0  0  0
    0.3768   -1.7923    0.0757 C   0  0  0  0  0  0  0  0  0  0  0  0
    3.3493   -0.0382   -0.3284 C   0  0  0  0  0  0  0  0  0  0  0  0
    3.8432   -0.1698    2.0347 C   0  0  0  0  0  0  0  0  0  0  0  0
   -0.6396   -2.2338   -0.9467 C   0  0  0  0  0  0  0  0  0  0  0  0
    3.9057    1.2406   -0.3703 C   0  0  0  0  0  0  0  0  0  0  0  0
    4.4121    1.1032    1.9909 C   0  0  0  0  0  0  0  0  0  0  0  0
    4.4565    1.8021    0.7843 C   0  0  0  0  0  0  0  0  0  0  0  0
    4.1555    3.2878   -1.4342 C   0  0  0  0  0  0  0  0  0  0  0  0
    5.3447    3.5048   -0.5187 C   0  0  0  0  0  0  0  0  0  0  0  0
   -2.2055   -0.3139   -1.0809 C   0  0  0  0  0  0  0  0  0  0  0  0
   -3.4894    0.2515   -0.5921 C   0  0  0  0  0  0  0  0  0  0  0  0
   -4.5127   -0.6064   -0.1816 C   0  0  0  0  0  0  0  0  0  0  0  0
   -3.6636    1.6460   -0.5475 C   0  0  0  0  0  0  0  0  0  0  0  0
   -5.6870   -0.0351    0.2638 C   0  0  0  0  0  0  0  0  0  0  0  0
   -5.8574    1.3297    0.3074 C   0  0  0  0  0  0  0  0  0  0  0  0
   -4.8629    2.1986   -0.0919 C   0  0  0  0  0  0  0  0  0  0  0  0
   -7.6690    0.3871    1.0225 C   0  0  0  0  0  0  0  0  0  0  0  0
    2.2688   -2.2781    1.9232 H   0  0  0  0  0  0  0  0  0  0  0  0
    4.7577   -2.9764    0.8802 H   0  0  0  0  0  0  0  0  0  0  0  0
    3.4558   -4.1437    1.1665 H   0  0  0  0  0  0  0  0  0  0  0  0
    3.8977   -4.4750   -1.1823 H   0  0  0  0  0  0  0  0  0  0  0  0
    4.0969   -2.7369   -1.4539 H   0  0  0  0  0  0  0  0  0  0  0  0
    1.5114   -4.2507   -0.8869 H   0  0  0  0  0  0  0  0  0  0  0  0
    1.7966   -2.9548   -2.0769 H   0  0  0  0  0  0  0  0  0  0  0  0
    2.9447   -0.4601   -1.2441 H   0  0  0  0  0  0  0  0  0  0  0  0
    3.8209   -0.7097    2.9777 H   0  0  0  0  0  0  0  0  0  0  0  0
   -0.3248   -1.9402   -1.9514 H   0  0  0  0  0  0  0  0  0  0  0  0
   -0.8020   -3.3127   -0.8874 H   0  0  0  0  0  0  0  0  0  0  0  0
    4.8274    1.5375    2.8962 H   0  0  0  0  0  0  0  0  0  0  0  0
   -2.4294   -2.0266    0.1089 H   0  0  0  0  0  0  0  0  0  0  0  0
    3.2534    3.7787   -1.0484 H   0  0  0  0  0  0  0  0  0  0  0  0
    4.3642    3.6902   -2.4304 H   0  0  0  0  0  0  0  0  0  0  0  0
    5.5816    4.5710   -0.4495 H   0  0  0  0  0  0  0  0  0  0  0  0
    6.2360    2.9787   -0.8826 H   0  0  0  0  0  0  0  0  0  0  0  0
   -4.4324   -1.6865   -0.2247 H   0  0  0  0  0  0  0  0  0  0  0  0
   -2.8669    2.3157   -0.8621 H   0  0  0  0  0  0  0  0  0  0  0  0
   -5.0010    3.2732   -0.0551 H   0  0  0  0  0  0  0  0  0  0  0  0
   -8.5806    0.2925    0.4214 H   0  0  0  0  0  0  0  0  0  0  0  0
   -7.9379    0.3194    2.0829 H   0  0  0  0  0  0  0  0  0  0  0  0
  1 14  2  0  0  0  0
  2 18  1  0  0  0  0
  2 21  1  0  0  0  0
  3 20  1  0  0  0  0
  3 22  1  0  0  0  0
  4 23  2  0  0  0  0
  5 27  1  0  0  0  0
  5 30  1  0  0  0  0
  6 28  1  0  0  0  0
  6 30  1  0  0  0  0
  7  9  1  0  0  0  0
  7 12  1  0  0  0  0
  7 14  1  0  0  0  0
  8 17  1  0  0  0  0
  8 23  1  0  0  0  0
  8 43  1  0  0  0  0
  9 10  1  0  0  0  0
  9 13  1  0  0  0  0
  9 31  1  0  0  0  0
 10 11  1  0  0  0  0
 10 32  1  0  0  0  0
 10 33  1  0  0  0  0
 11 12  1  0  0  0  0
 11 34  1  0  0  0  0
 11 35  1  0  0  0  0
 12 36  1  0  0  0  0
 12 37  1  0  0  0  0
 13 15  2  0  0  0  0
 13 16  1  0  0  0  0
 14 17  1  0  0  0  0
 15 18  1  0  0  0  0
 15 38  1  0  0  0  0
 16 19  2  0  0  0  0
 16 39  1  0  0  0  0
 17 40  1  0  0  0  0
 17 41  1  0  0  0  0
 18 20  2  0  0  0  0
 19 20  1  0  0  0  0
 19 42  1  0  0  0  0
 21 22  1  0  0  0  0
 21 44  1  0  0  0  0
 21 45  1  0  0  0  0
 22 46  1  0  0  0  0
 22 47  1  0  0  0  0
 23 24  1  0  0  0  0
 24 25  2  0  0  0  0
 24 26  1  0  0  0  0
 25 27  1  0  0  0  0
 25 48  1  0  0  0  0
 26 29  2  0  0  0  0
 26 49  1  0  0  0  0
 27 28  2  0  0  0  0
 28 29  1  0  0  0  0
 29 50  1  0  0  0  0
 30 51  1  0  0  0  0
 30 52  1  0  0  0  0
M  END
> <PUBCHEM_COMPOUND_CID>
17396114

> <PUBCHEM_CONFORMER_RMSD>
1.2

> <PUBCHEM_CONFORMER_DIVERSEORDER>
1
35
147
4
38
8
11
185
66
72
170
60
138
165
141
52
111
153
131
135
3
81
116
78
167
139
74
27
73
100
146
59
107
54
93
24
33
132
20
7
31
186
154
101
157
142
61
104
12
64
145
175
43
86
49
62
98
94
58
159
110
92
151
97
85
144
148
51
19
16
113
150
57
22
95
83
96
70
106
37
124
102
32
15
136
130
39
137
10
2
123
156
25
6
173
189
68
47
122
120
77
174
112
14
128
178
18
162
99
163
152
89
127
55
42
115
17
125
105
184
188
36
91
118
41
143
88
114
133
177
23
169
9
121
182
76
69
109
63
53
103
28
21
160
168
48
164
13
183
30
56
46
34
67
180
44
119
158
90
71
179
140
108
5
65
181
82
161
129
176
187
155
29
149
134
166
80
45
40
171
84
75
126
87
79
172
117
26
50

> <PUBCHEM_MMFF94_PARTIAL_CHARGES>
35
1 -0.57
12 0.3
13 -0.14
14 0.57
15 -0.15
16 -0.15
17 0.36
18 0.08
19 -0.15
2 -0.36
20 0.08
21 0.28
22 0.28
23 0.54
24 0.09
25 -0.15
26 -0.15
27 0.08
28 0.08
29 -0.15
3 -0.36
30 0.56
38 0.15
39 0.15
4 -0.57
42 0.15
43 0.37
48 0.15
49 0.15
5 -0.36
50 0.15
6 -0.36
7 -0.66
8 -0.73
9 0.44

> <PUBCHEM_EFFECTIVE_ROTOR_COUNT>
8.4

> <PUBCHEM_PHARMACOPHORE_FEATURES>
12
1 1 acceptor
1 2 acceptor
1 3 acceptor
1 4 acceptor
1 5 acceptor
1 6 acceptor
1 8 donor
5 5 6 27 28 30 rings
5 7 9 10 11 12 rings
6 13 15 16 18 19 20 rings
6 2 3 18 20 21 22 rings
6 24 25 26 27 28 29 rings

> <PUBCHEM_HEAVY_ATOM_COUNT>
30

> <PUBCHEM_ATOM_DEF_STEREO_COUNT>
0

> <PUBCHEM_ATOM_UDEF_STEREO_COUNT>
1

> <PUBCHEM_BOND_DEF_STEREO_COUNT>
0

> <PUBCHEM_BOND_UDEF_STEREO_COUNT>
0

> <PUBCHEM_ISOTOPIC_ATOM_COUNT>
0

> <PUBCHEM_COMPONENT_COUNT>
1

> <PUBCHEM_CACTVS_TAUTO_COUNT>
2

> <PUBCHEM_CONFORMER_ID>
0109719200000001

> <PUBCHEM_MMFF94_ENERGY>
88.0628

> <PUBCHEM_FEATURE_SELFOVERLAP>
61.09

> <PUBCHEM_SHAPE_FINGERPRINT>
10254770 206 8718283273256486324
10554248 39 17896048800994041781
10673678 19 18334290950785268154
10721379 63 18260819445699360414
11135609 201 18194971742525621568
11331351 85 17388833165005329198
11720765 8 17604417597071293460
1200032 147 18130219351615226128
12373685 5 10879129256229617681
12616971 3 17823431546631714295
14114211 68 18338500964240251980
14251764 75 18268709403363847180
14294032 229 18044936762308172986
14347332 77 9295297131943367651
14400156 188 17773039867869304458
14537116 161 16732700571681574561
14849402 71 18343302600380605634
15163728 17 18266457616724688158
15183329 4 9655577427126357987
15188451 53 12895085002346032353
15297060 5 18261957328596633432
15439362 3 18337106762606672126
15475509 8 4678828250835699275
15840311 113 18340200908438787437
16760501 71 18412545397116402545
17844677 252 18266737068660993403
19304671 126 16950559914295804320
19309040 13 18188491276699341702
1979834 28 18273214188164483612
19958102 18 7709453893382857969
20567600 234 18342174467132570755
21049683 271 18194678401288229150
21365058 113 17901089030678341734
21458453 9 18058996333878057747
21987483 16 17988923337218108475
22149856 69 18260258673489089363
25269216 80 15286225873623311389
3411729 13 18411978057263260783
373842 8 18267589194531745749
397830 11 18271799121769904707
484985 159 9044765161232858796
5104073 3 18341049735409457891
513532 50 18186793704245789670
5252454 2 18261125023420106140
5364581 5 18413385437465414681
5951187 136 17822291215809090248
6443934 186 18060133207204678201
6609424 69 18127420166371641076
960060 61 6266896904739699056
9849439 229 18263090916151531264

> <PUBCHEM_SHAPE_MULTIPOLES>
572.21
17.85
4.34
1.51
31.76
0.25
0.18
-11.99
5.14
-8.51
-1.25
-1.47
-0.27
-0.75

> <PUBCHEM_SHAPE_SELFOVERLAP>
1262.609

> <PUBCHEM_SHAPE_VOLUME>
305.6

> <PUBCHEM_COORDINATE_TYPE>
2
5
10

$$$$

