17395761
  -OEChem-06241222523D

 49 50  0     0  0  0  0  0  0999 V2000
   -1.4860    0.2481    1.6881 O   0  0  0  0  0  0  0  0  0  0  0  0
   -4.0389   -0.9223    1.5785 O   0  0  0  0  0  0  0  0  0  0  0  0
    0.6628    0.8340    0.0391 N   0  0  0  0  0  0  0  0  0  0  0  0
    3.4490    0.2398   -0.1680 N   0  0  0  0  0  0  0  0  0  0  0  0
   -2.8401    0.0066   -0.1944 N   0  0  0  0  0  0  0  0  0  0  0  0
   -4.9296   -0.8931   -0.5638 N   0  0  0  0  0  0  0  0  0  0  0  0
    1.5900    1.8119   -0.5429 C   0  0  0  0  0  0  0  0  0  0  0  0
    1.1097   -0.5281   -0.2780 C   0  0  0  0  0  0  0  0  0  0  0  0
    3.0050    1.6256    0.0105 C   0  0  0  0  0  0  0  0  0  0  0  0
    2.5079   -0.7922    0.2852 C   0  0  0  0  0  0  0  0  0  0  0  0
   -0.6951    1.0565   -0.4562 C   0  0  0  0  0  0  0  0  0  0  0  0
    4.8157   -0.0598   -0.1426 C   0  0  0  0  0  0  0  0  0  0  0  0
   -1.6860    0.4045    0.4865 C   0  0  0  0  0  0  0  0  0  0  0  0
    5.6858    0.7151    0.6245 C   0  0  0  0  0  0  0  0  0  0  0  0
    5.3081   -1.1334   -0.8848 C   0  0  0  0  0  0  0  0  0  0  0  0
    7.0481    0.4166    0.6490 C   0  0  0  0  0  0  0  0  0  0  0  0
    6.6704   -1.4319   -0.8600 C   0  0  0  0  0  0  0  0  0  0  0  0
    7.5404   -0.6567   -0.0931 C   0  0  0  0  0  0  0  0  0  0  0  0
   -7.2603   -0.5517    0.1709 C   0  0  0  0  0  0  0  0  0  0  0  0
   -6.1726   -1.5442   -0.2264 C   0  0  0  0  0  0  0  0  0  0  0  0
   -3.9454   -0.6309    0.3872 C   0  0  0  0  0  0  0  0  0  0  0  0
   -7.6058    0.4242   -0.9563 C   0  0  0  0  0  0  0  0  0  0  0  0
   -8.7334    1.3615   -0.5529 C   0  0  0  0  0  0  0  0  0  0  0  0
    1.2638    2.8312   -0.3028 H   0  0  0  0  0  0  0  0  0  0  0  0
    1.6077    1.7235   -1.6376 H   0  0  0  0  0  0  0  0  0  0  0  0
    1.1196   -0.6904   -1.3646 H   0  0  0  0  0  0  0  0  0  0  0  0
    0.4281   -1.2704    0.1539 H   0  0  0  0  0  0  0  0  0  0  0  0
    3.0199    1.8884    1.0760 H   0  0  0  0  0  0  0  0  0  0  0  0
    3.6705    2.3181   -0.5201 H   0  0  0  0  0  0  0  0  0  0  0  0
    2.8189   -1.7941   -0.0320 H   0  0  0  0  0  0  0  0  0  0  0  0
    2.4782   -0.7958    1.3826 H   0  0  0  0  0  0  0  0  0  0  0  0
   -0.8177    0.7033   -1.4871 H   0  0  0  0  0  0  0  0  0  0  0  0
   -0.9434    2.1258   -0.4422 H   0  0  0  0  0  0  0  0  0  0  0  0
    5.3358    1.5492    1.2257 H   0  0  0  0  0  0  0  0  0  0  0  0
    4.6490   -1.7405   -1.5001 H   0  0  0  0  0  0  0  0  0  0  0  0
   -2.8984    0.1947   -1.1916 H   0  0  0  0  0  0  0  0  0  0  0  0
    7.7255    1.0179    1.2485 H   0  0  0  0  0  0  0  0  0  0  0  0
    7.0545   -2.2657   -1.4403 H   0  0  0  0  0  0  0  0  0  0  0  0
    8.6011   -0.8892   -0.0739 H   0  0  0  0  0  0  0  0  0  0  0  0
   -8.1587   -1.1116    0.4571 H   0  0  0  0  0  0  0  0  0  0  0  0
   -6.9391    0.0139    1.0544 H   0  0  0  0  0  0  0  0  0  0  0  0
   -5.9982   -2.2481    0.5946 H   0  0  0  0  0  0  0  0  0  0  0  0
   -6.4840   -2.1223   -1.1028 H   0  0  0  0  0  0  0  0  0  0  0  0
   -6.7284    1.0237   -1.2241 H   0  0  0  0  0  0  0  0  0  0  0  0
   -7.9050   -0.1330   -1.8517 H   0  0  0  0  0  0  0  0  0  0  0  0
   -4.7726   -0.6132   -1.5271 H   0  0  0  0  0  0  0  0  0  0  0  0
   -8.4546    1.9563    0.3228 H   0  0  0  0  0  0  0  0  0  0  0  0
   -8.9649    2.0500   -1.3716 H   0  0  0  0  0  0  0  0  0  0  0  0
   -9.6427    0.8013   -0.3131 H   0  0  0  0  0  0  0  0  0  0  0  0
  1 13  2  0  0  0  0
  2 21  2  0  0  0  0
  3  7  1  0  0  0  0
  3  8  1  0  0  0  0
  3 11  1  0  0  0  0
  4  9  1  0  0  0  0
  4 10  1  0  0  0  0
  4 12  1  0  0  0  0
  5 13  1  0  0  0  0
  5 21  1  0  0  0  0
  5 36  1  0  0  0  0
  6 20  1  0  0  0  0
  6 21  1  0  0  0  0
  6 46  1  0  0  0  0
  7  9  1  0  0  0  0
  7 24  1  0  0  0  0
  7 25  1  0  0  0  0
  8 10  1  0  0  0  0
  8 26  1  0  0  0  0
  8 27  1  0  0  0  0
  9 28  1  0  0  0  0
  9 29  1  0  0  0  0
 10 30  1  0  0  0  0
 10 31  1  0  0  0  0
 11 13  1  0  0  0  0
 11 32  1  0  0  0  0
 11 33  1  0  0  0  0
 12 14  2  0  0  0  0
 12 15  1  0  0  0  0
 14 16  1  0  0  0  0
 14 34  1  0  0  0  0
 15 17  2  0  0  0  0
 15 35  1  0  0  0  0
 16 18  2  0  0  0  0
 16 37  1  0  0  0  0
 17 18  1  0  0  0  0
 17 38  1  0  0  0  0
 18 39  1  0  0  0  0
 19 20  1  0  0  0  0
 19 22  1  0  0  0  0
 19 40  1  0  0  0  0
 19 41  1  0  0  0  0
 20 42  1  0  0  0  0
 20 43  1  0  0  0  0
 22 23  1  0  0  0  0
 22 44  1  0  0  0  0
 22 45  1  0  0  0  0
 23 47  1  0  0  0  0
 23 48  1  0  0  0  0
 23 49  1  0  0  0  0
M  END
> <PUBCHEM_COMPOUND_CID>
17395761

> <PUBCHEM_CONFORMER_RMSD>
1

> <PUBCHEM_CONFORMER_DIVERSEORDER>
1
70
10
65
43
53
74
62
81
54
76
48
85
19
61
63
93
73
13
78
84
90
88
87
75
26
50
83
17
12
15
55
16
80
4
92
82
36
7
72
21
39
18
32
47
64
35
23
40
67
69
57
68
20
49
91
56
28
58
42
51
25
8
89
14
46
59
30
22
27
29
37
9
3
79
44
45
24
60
11
31
38
33
34
6
5
86
77
2
71
41
66
52

> <PUBCHEM_MMFF94_PARTIAL_CHARGES>
27
1 -0.57
10 0.37
11 0.33
12 0.1
13 0.57
14 -0.15
15 -0.15
16 -0.15
17 -0.15
18 -0.15
2 -0.57
20 0.3
21 0.69
3 -0.81
34 0.15
35 0.15
36 0.37
37 0.15
38 0.15
39 0.15
4 -0.84
46 0.37
5 -0.49
6 -0.73
7 0.27
8 0.27
9 0.37

> <PUBCHEM_EFFECTIVE_ROTOR_COUNT>
10.2

> <PUBCHEM_PHARMACOPHORE_FEATURES>
9
1 1 acceptor
1 2 acceptor
1 23 hydrophobe
1 3 cation
1 4 cation
1 5 donor
1 6 donor
6 12 14 15 16 17 18 rings
6 3 4 7 8 9 10 rings

> <PUBCHEM_HEAVY_ATOM_COUNT>
23

> <PUBCHEM_ATOM_DEF_STEREO_COUNT>
0

> <PUBCHEM_ATOM_UDEF_STEREO_COUNT>
0

> <PUBCHEM_BOND_DEF_STEREO_COUNT>
0

> <PUBCHEM_BOND_UDEF_STEREO_COUNT>
0

> <PUBCHEM_ISOTOPIC_ATOM_COUNT>
0

> <PUBCHEM_COMPONENT_COUNT>
1

> <PUBCHEM_CACTVS_TAUTO_COUNT>
5

> <PUBCHEM_CONFORMER_ID>
0109703100000001

> <PUBCHEM_MMFF94_ENERGY>
52.728

> <PUBCHEM_FEATURE_SELFOVERLAP>
45.725

> <PUBCHEM_SHAPE_FINGERPRINT>
10 15 5617530800948412982
106641 1 8646766708306486613
10670039 82 15267075752463585767
10883706 142 10015582788320312420
11315181 36 17603864482318679595
11719270 70 18259984877186429422
11724838 91 7276827987575438609
11796584 16 16200428044909922114
12236239 1 17894627045726563442
12596602 18 17240475936409447690
12730499 353 8790895077157504004
12838862 33 18336281088301234199
13533116 47 18041277678258441472
13668630 136 18410854339521986423
13685833 64 18408884031996275614
13862211 1 18413388752958497394
13885169 127 18408323315605612013
13914758 101 18408884057887730217
13964095 4 18059858372627124439
14123256 10 17704355476371912582
14251752 14 15985389975311343626
14251764 18 5617536298274216085
14251764 46 18410856568234998919
14294032 229 16915952957736932013
15183329 4 15770060531685478342
15188451 53 17748824137720276848
15301273 46 18187367635781661682
15419008 91 18267885933489663349
15461852 350 15285360622386158765
15690457 1 17749112162680792023
15716309 27 17313104146226206494
15840311 113 5256396228739139506
15849732 13 18260268538079356655
18006028 8 17095243618596726737
18222031 100 17988918969146079668
18335252 98 10231755609173438109
20028762 73 18186799171713511030
20238998 120 18412265034352638317
20281389 69 7709466004668672106
20621476 8 18130790079564165741
21095086 128 13912317989188495828
21095123 145 14764335043316326377
21150785 3 13901908907975626221
21267235 1 18411695478437672388
22224240 67 5617535198520086253
23559900 14 17488738952557843381
249057 3 18343866598268740837
28498 318 18408886256646916901
29717793 49 18342172250212294452
3004659 81 18202004308964452737
3009799 131 18202283597697210907
3633792 109 18259983808118763467
4325135 7 17749107786040226974
4340502 62 15140674787833282820
5104073 3 5616438933951097310
5283156 175 17967248702394082139
5758199 1 8070032172806566005
5969126 39 16950285135473619465
9689198 14 11455896870998368531
9953998 17 8646771123859908407

> <PUBCHEM_SHAPE_MULTIPOLES>
441.67
25.96
1.5
1
24.81
0.18
-0.21
-3.53
3.76
0.01
0.23
0.37
-0.07
1.27

> <PUBCHEM_SHAPE_SELFOVERLAP>
895.515

> <PUBCHEM_SHAPE_VOLUME>
256.2

> <PUBCHEM_COORDINATE_TYPE>
2
5
10

$$$$

