12042
  -OEChem-06261206263D

 19 18  0     0  0  0  0  0  0999 V2000
   -1.0742    0.2153    0.9452 S   0  0  0  0  0  0  0  0  0  0  0  0
    0.8536    2.2353   -0.0494 S   0  0  0  0  0  0  0  0  0  0  0  0
    1.3829   -0.4736    0.0027 N   0  0  0  0  0  0  0  0  0  0  0  0
   -2.0069   -0.0172   -0.5870 C   0  0  0  0  0  0  0  0  0  0  0  0
    0.5135    0.6073    0.2498 C   0  0  0  0  0  0  0  0  0  0  0  0
    2.7227   -0.2899   -0.5607 C   0  0  0  0  0  0  0  0  0  0  0  0
    1.0505   -1.8737    0.2832 C   0  0  0  0  0  0  0  0  0  0  0  0
   -3.4420   -0.4036   -0.2837 C   0  0  0  0  0  0  0  0  0  0  0  0
   -1.9939    0.9091   -1.1698 H   0  0  0  0  0  0  0  0  0  0  0  0
   -1.5340   -0.8012   -1.1868 H   0  0  0  0  0  0  0  0  0  0  0  0
    2.9236    0.7259   -0.9001 H   0  0  0  0  0  0  0  0  0  0  0  0
    2.8354   -0.9632   -1.4165 H   0  0  0  0  0  0  0  0  0  0  0  0
    3.4577   -0.5542    0.2059 H   0  0  0  0  0  0  0  0  0  0  0  0
    0.6296   -2.3127   -0.6260 H   0  0  0  0  0  0  0  0  0  0  0  0
    0.3414   -1.9846    1.1042 H   0  0  0  0  0  0  0  0  0  0  0  0
    1.9600   -2.4176    0.5580 H   0  0  0  0  0  0  0  0  0  0  0  0
   -3.4958   -1.3445    0.2746 H   0  0  0  0  0  0  0  0  0  0  0  0
   -3.9549    0.3739    0.2926 H   0  0  0  0  0  0  0  0  0  0  0  0
   -3.9962   -0.5420   -1.2181 H   0  0  0  0  0  0  0  0  0  0  0  0
  1  4  1  0  0  0  0
  1  5  1  0  0  0  0
  2  5  2  0  0  0  0
  3  5  1  0  0  0  0
  3  6  1  0  0  0  0
  3  7  1  0  0  0  0
  4  8  1  0  0  0  0
  4  9  1  0  0  0  0
  4 10  1  0  0  0  0
  6 11  1  0  0  0  0
  6 12  1  0  0  0  0
  6 13  1  0  0  0  0
  7 14  1  0  0  0  0
  7 15  1  0  0  0  0
  7 16  1  0  0  0  0
  8 17  1  0  0  0  0
  8 18  1  0  0  0  0
  8 19  1  0  0  0  0
M  END
> <PUBCHEM_COMPOUND_CID>
12042

> <PUBCHEM_CONFORMER_RMSD>
0.6

> <PUBCHEM_CONFORMER_DIVERSEORDER>
2
9
10
8
5
4
3
1
6
7

> <PUBCHEM_MMFF94_PARTIAL_CHARGES>
7
1 -0.37
2 -0.38
3 -0.66
4 0.23
5 0.58
6 0.3
7 0.3

> <PUBCHEM_EFFECTIVE_ROTOR_COUNT>
3

> <PUBCHEM_PHARMACOPHORE_FEATURES>
2
1 2 acceptor
1 8 hydrophobe

> <PUBCHEM_HEAVY_ATOM_COUNT>
8

> <PUBCHEM_ATOM_DEF_STEREO_COUNT>
0

> <PUBCHEM_ATOM_UDEF_STEREO_COUNT>
0

> <PUBCHEM_BOND_DEF_STEREO_COUNT>
0

> <PUBCHEM_BOND_UDEF_STEREO_COUNT>
0

> <PUBCHEM_ISOTOPIC_ATOM_COUNT>
0

> <PUBCHEM_COMPONENT_COUNT>
1

> <PUBCHEM_CACTVS_TAUTO_COUNT>
1

> <PUBCHEM_CONFORMER_ID>
00002F0A00000002

> <PUBCHEM_MMFF94_ENERGY>
20.0639

> <PUBCHEM_FEATURE_SELFOVERLAP>
10.148

> <PUBCHEM_SHAPE_FINGERPRINT>
12897270 3 18343304747431360247
14128692 85 17967816020218454117
14390081 3 12751239211967623559
18185500 45 18335136552520510939
20201158 50 18343865524099934595
21040471 1 17834398917009129320
21293036 1 18341324522663100478
23552333 60 17968096387193881417
23552423 10 18335988575769905445
29004967 10 18412825815051013185

> <PUBCHEM_SHAPE_MULTIPOLES>
167.35
4.11
1.89
0.87
2.84
0.56
-0.09
-0.97
1.1
-1.19
-0.09
0.16
0.02
-0.08

> <PUBCHEM_SHAPE_SELFOVERLAP>
276.523

> <PUBCHEM_SHAPE_VOLUME>
117

> <PUBCHEM_COORDINATE_TYPE>
2
5
10

$$$$

