47205157
  -OEChem-06241222583D

 40 40  0     0  0  0  0  0  0999 V2000
    3.6244   -1.4452   -1.0596 O   0  0  0  0  0  0  0  0  0  0  0  0
   -0.5314   -0.7863    1.3798 O   0  0  0  0  0  0  0  0  0  0  0  0
    2.2144   -1.3607    0.7857 N   0  0  0  0  0  0  0  0  0  0  0  0
   -1.8364   -1.0999   -0.5473 N   0  0  0  0  0  0  0  0  0  0  0  0
   -3.9165   -0.1959   -1.2627 N   0  0  0  0  0  0  0  0  0  0  0  0
    3.2524    1.6807   -0.0828 C   0  0  0  0  0  0  0  0  0  0  0  0
    3.8724    0.3811    0.4834 C   0  0  0  0  0  0  0  0  0  0  0  0
    1.7504    1.7722    0.2324 C   0  0  0  0  0  0  0  0  0  0  0  0
    3.4286    1.6658   -1.6140 C   0  0  0  0  0  0  0  0  0  0  0  0
    3.9651    2.9236    0.4763 C   0  0  0  0  0  0  0  0  0  0  0  0
    3.2360   -0.9012   -0.0278 C   0  0  0  0  0  0  0  0  0  0  0  0
    1.4642   -2.5650    0.5114 C   0  0  0  0  0  0  0  0  0  0  0  0
    0.2353   -2.2897   -0.3440 C   0  0  0  0  0  0  0  0  0  0  0  0
   -0.7408   -1.3033    0.2874 C   0  0  0  0  0  0  0  0  0  0  0  0
   -2.9483   -0.2541   -0.3210 C   0  0  0  0  0  0  0  0  0  0  0  0
   -2.9728    0.4664    0.8623 C   0  0  0  0  0  0  0  0  0  0  0  0
   -4.0611    1.2999    1.0941 C   0  0  0  0  0  0  0  0  0  0  0  0
   -4.9586    0.6251   -1.0025 C   0  0  0  0  0  0  0  0  0  0  0  0
   -5.0773    1.3865    0.1490 C   0  0  0  0  0  0  0  0  0  0  0  0
    3.8162    0.3932    1.5798 H   0  0  0  0  0  0  0  0  0  0  0  0
    4.9421    0.3323    0.2407 H   0  0  0  0  0  0  0  0  0  0  0  0
    1.1770    0.9893   -0.2732 H   0  0  0  0  0  0  0  0  0  0  0  0
    1.3379    2.7320   -0.0995 H   0  0  0  0  0  0  0  0  0  0  0  0
    1.5685    1.6895    1.3095 H   0  0  0  0  0  0  0  0  0  0  0  0
    3.0855    2.6095   -2.0546 H   0  0  0  0  0  0  0  0  0  0  0  0
    4.4807    1.5373   -1.8924 H   0  0  0  0  0  0  0  0  0  0  0  0
    2.8510    0.8662   -2.0895 H   0  0  0  0  0  0  0  0  0  0  0  0
    3.5510    3.8468    0.0559 H   0  0  0  0  0  0  0  0  0  0  0  0
    5.0359    2.9014    0.2447 H   0  0  0  0  0  0  0  0  0  0  0  0
    3.8607    2.9757    1.5658 H   0  0  0  0  0  0  0  0  0  0  0  0
    1.9641   -0.8317    1.6158 H   0  0  0  0  0  0  0  0  0  0  0  0
    1.1721   -2.9866    1.4791 H   0  0  0  0  0  0  0  0  0  0  0  0
    2.1153   -3.2867    0.0067 H   0  0  0  0  0  0  0  0  0  0  0  0
   -0.2969   -3.2307   -0.5260 H   0  0  0  0  0  0  0  0  0  0  0  0
    0.5426   -1.8830   -1.3156 H   0  0  0  0  0  0  0  0  0  0  0  0
   -1.8686   -1.6042   -1.4301 H   0  0  0  0  0  0  0  0  0  0  0  0
   -2.2260    0.4524    1.6388 H   0  0  0  0  0  0  0  0  0  0  0  0
   -4.1189    1.8821    2.0091 H   0  0  0  0  0  0  0  0  0  0  0  0
   -5.7242    0.6569   -1.7707 H   0  0  0  0  0  0  0  0  0  0  0  0
   -5.9350    2.0298    0.3086 H   0  0  0  0  0  0  0  0  0  0  0  0
  1 11  2  0  0  0  0
  2 14  2  0  0  0  0
  3 11  1  0  0  0  0
  3 12  1  0  0  0  0
  3 31  1  0  0  0  0
  4 14  1  0  0  0  0
  4 15  1  0  0  0  0
  4 36  1  0  0  0  0
  5 15  1  0  0  0  0
  5 18  2  0  0  0  0
  6  7  1  0  0  0  0
  6  8  1  0  0  0  0
  6  9  1  0  0  0  0
  6 10  1  0  0  0  0
  7 11  1  0  0  0  0
  7 20  1  0  0  0  0
  7 21  1  0  0  0  0
  8 22  1  0  0  0  0
  8 23  1  0  0  0  0
  8 24  1  0  0  0  0
  9 25  1  0  0  0  0
  9 26  1  0  0  0  0
  9 27  1  0  0  0  0
 10 28  1  0  0  0  0
 10 29  1  0  0  0  0
 10 30  1  0  0  0  0
 12 13  1  0  0  0  0
 12 32  1  0  0  0  0
 12 33  1  0  0  0  0
 13 14  1  0  0  0  0
 13 34  1  0  0  0  0
 13 35  1  0  0  0  0
 15 16  2  0  0  0  0
 16 17  1  0  0  0  0
 16 37  1  0  0  0  0
 17 19  2  0  0  0  0
 17 38  1  0  0  0  0
 18 19  1  0  0  0  0
 18 39  1  0  0  0  0
 19 40  1  0  0  0  0
M  END
> <PUBCHEM_COMPOUND_CID>
47205157

> <PUBCHEM_CONFORMER_RMSD>
0.8

> <PUBCHEM_CONFORMER_DIVERSEORDER>
1
30
16
56
21
69
33
45
49
25
62
57
61
6
94
28
74
96
12
71
54
18
92
87
95
34
75
22
76
2
83
29
64
38
39
17
72
93
53
65
80
88
11
46
24
40
99
98
67
47
31
85
20
97
3
84
52
14
13
50
70
82
35
44
86
89
9
55
63
58
60
77
81
36
32
26
8
91
27
5
41
73
42
10
90
7
19
4
79
23
78
66
68
15
59
43
51
37
48

> <PUBCHEM_MMFF94_PARTIAL_CHARGES>
21
1 -0.57
11 0.57
12 0.3
13 0.06
14 0.57
15 0.43
16 -0.15
17 -0.15
18 0.16
19 -0.15
2 -0.57
3 -0.73
31 0.37
36 0.37
37 0.15
38 0.15
39 0.15
4 -0.55
40 0.15
5 -0.62
7 0.06

> <PUBCHEM_EFFECTIVE_ROTOR_COUNT>
8

> <PUBCHEM_PHARMACOPHORE_FEATURES>
7
1 1 acceptor
1 2 acceptor
1 3 donor
1 4 donor
1 5 acceptor
4 6 8 9 10 hydrophobe
6 5 15 16 17 18 19 rings

> <PUBCHEM_HEAVY_ATOM_COUNT>
19

> <PUBCHEM_ATOM_DEF_STEREO_COUNT>
0

> <PUBCHEM_ATOM_UDEF_STEREO_COUNT>
0

> <PUBCHEM_BOND_DEF_STEREO_COUNT>
0

> <PUBCHEM_BOND_UDEF_STEREO_COUNT>
0

> <PUBCHEM_ISOTOPIC_ATOM_COUNT>
0

> <PUBCHEM_COMPONENT_COUNT>
1

> <PUBCHEM_CACTVS_TAUTO_COUNT>
6

> <PUBCHEM_CONFORMER_ID>
02D04B2500000001

> <PUBCHEM_MMFF94_ENERGY>
45.3804

> <PUBCHEM_FEATURE_SELFOVERLAP>
35.52

> <PUBCHEM_SHAPE_FINGERPRINT>
10498660 4 18338515244368064609
10730089 43 16988841670172783837
11595378 159 14117518748789331359
12633257 1 17775297057665322402
13828863 39 15264785323524078004
1420 369 9367348136878698485
14251764 30 11958636515806635520
14251764 75 18267011774126414337
14252887 29 8646765586713789718
14528608 73 18409735071271034735
14848178 96 18412263904590908364
15342168 16 18343017787860508111
17810953 82 18411418435899398840
1798214 55 18340768143914936632
18186145 218 18342737437732958863
19752476 56 18259981561645489984
20621476 13 18338801104728502200
21033648 29 17060066985917545607
21315763 76 18337687381058776693
21475661 188 17632304522580330093
21503847 285 18339076090077544230
22224240 67 10375282502762684470
23559900 14 18336266850622343850
3060560 45 18261673787382080614
43658 37 18337958887336914914
4409770 3 15452535154239542735
474 4 18412830196165782795
5048184 11 18338796702180762828
543358 83 18336264647234646266
5895379 119 17313935463190685384
6328613 192 18270117882792512580
633830 44 18408041835948747503
9971528 1 18188494700321395962

> <PUBCHEM_SHAPE_MULTIPOLES>
364.33
10.83
2.87
1.2
7.79
0.07
-0.19
-6.74
-1.47
-3.13
0.21
0.19
-0.17
-0.42

> <PUBCHEM_SHAPE_SELFOVERLAP>
732.837

> <PUBCHEM_SHAPE_VOLUME>
212.8

> <PUBCHEM_COORDINATE_TYPE>
2
5
10

$$$$

