10793
  -OEChem-06261204583D

 10  9  0     0  0  0  0  0  0999 V2000
    2.6982    0.2242    0.0115 Cl  0  0  0  0  0  0  0  0  0  0  0  0
   -2.6984    0.2244    0.0112 Cl  0  0  0  0  0  0  0  0  0  0  0  0
    0.0004    1.2188   -0.0097 O   0  0  0  0  0  0  0  0  0  0  0  0
    0.0000   -0.0111   -0.0051 C   0  0  0  0  0  0  0  0  0  0  0  0
    1.2751   -0.8282   -0.0043 C   0  0  0  0  0  0  0  0  0  0  0  0
   -1.2754   -0.8281   -0.0037 C   0  0  0  0  0  0  0  0  0  0  0  0
    1.3054   -1.4582    0.8881 H   0  0  0  0  0  0  0  0  0  0  0  0
    1.3145   -1.4453   -0.9053 H   0  0  0  0  0  0  0  0  0  0  0  0
   -1.3057   -1.4574    0.8893 H   0  0  0  0  0  0  0  0  0  0  0  0
   -1.3148   -1.4459   -0.9043 H   0  0  0  0  0  0  0  0  0  0  0  0
  1  5  1  0  0  0  0
  2  6  1  0  0  0  0
  3  4  2  0  0  0  0
  4  5  1  0  0  0  0
  4  6  1  0  0  0  0
  5  7  1  0  0  0  0
  5  8  1  0  0  0  0
  6  9  1  0  0  0  0
  6 10  1  0  0  0  0
M  END
> <PUBCHEM_COMPOUND_CID>
10793

> <PUBCHEM_CONFORMER_RMSD>
0.4

> <PUBCHEM_CONFORMER_DIVERSEORDER>
1
14
10
9
12
8
11
3
4
2
13
6
5
7

> <PUBCHEM_MMFF94_PARTIAL_CHARGES>
6
1 -0.29
2 -0.29
3 -0.57
4 0.45
5 0.35
6 0.35

> <PUBCHEM_EFFECTIVE_ROTOR_COUNT>
2

> <PUBCHEM_PHARMACOPHORE_FEATURES>
1
1 3 acceptor

> <PUBCHEM_HEAVY_ATOM_COUNT>
6

> <PUBCHEM_ATOM_DEF_STEREO_COUNT>
0

> <PUBCHEM_ATOM_UDEF_STEREO_COUNT>
0

> <PUBCHEM_BOND_DEF_STEREO_COUNT>
0

> <PUBCHEM_BOND_UDEF_STEREO_COUNT>
0

> <PUBCHEM_ISOTOPIC_ATOM_COUNT>
0

> <PUBCHEM_COMPONENT_COUNT>
1

> <PUBCHEM_CACTVS_TAUTO_COUNT>
2

> <PUBCHEM_CONFORMER_ID>
00002A2900000001

> <PUBCHEM_MMFF94_ENERGY>
4.9622

> <PUBCHEM_FEATURE_SELFOVERLAP>
5.074

> <PUBCHEM_SHAPE_FINGERPRINT>
139733 1 9223231849122338311
14390081 3 18259707787128201904
16714656 1 18408322198222739334
20096714 4 18338516335674587235
21040471 1 18410573972277306631
29004967 10 18343858913833867395
5460574 1 9295289439034110499

> <PUBCHEM_SHAPE_MULTIPOLES>
121.35
3.86
1.04
0.62
0
0.05
0
0.3
-0.03
0
0
0
-0.02
0

> <PUBCHEM_SHAPE_SELFOVERLAP>
201.466

> <PUBCHEM_SHAPE_VOLUME>
84.5

> <PUBCHEM_COORDINATE_TYPE>
2
5
10

$$$$

