854029
  -OEChem-06241222473D

 23 22  0     1  0  0  0  0  0999 V2000
   -1.8794   -0.9581   -0.9114 O   0  0  0  0  0  0  0  0  0  0  0  0
   -0.6107    1.5035   -1.1643 N   0  0  0  0  0  0  0  0  0  0  0  0
   -2.2111   -0.5028    1.3133 N   0  0  0  0  0  0  0  0  0  0  0  0
    0.8481    0.2687    0.4976 C   0  0  1  0  0  0  0  0  0  0  0  0
   -0.5571    0.8090    0.1215 C   0  0  2  0  0  0  0  0  0  0  0  0
    1.3704   -0.8215   -0.4643 C   0  0  0  0  0  0  0  0  0  0  0  0
    1.9040    1.3808    0.6028 C   0  0  0  0  0  0  0  0  0  0  0  0
    2.7371   -1.3747   -0.0872 C   0  0  0  0  0  0  0  0  0  0  0  0
   -1.6013   -0.3049    0.0919 C   0  0  0  0  0  0  0  0  0  0  0  0
    0.7604   -0.1884    1.4933 H   0  0  0  0  0  0  0  0  0  0  0  0
   -0.8605    1.5367    0.8849 H   0  0  0  0  0  0  0  0  0  0  0  0
    1.4249   -0.4379   -1.4897 H   0  0  0  0  0  0  0  0  0  0  0  0
    0.6667   -1.6614   -0.4780 H   0  0  0  0  0  0  0  0  0  0  0  0
    1.5107    2.2274    1.1763 H   0  0  0  0  0  0  0  0  0  0  0  0
    2.7999    1.0351    1.1282 H   0  0  0  0  0  0  0  0  0  0  0  0
    2.2048    1.7511   -0.3828 H   0  0  0  0  0  0  0  0  0  0  0  0
    3.5316   -0.6397   -0.2452 H   0  0  0  0  0  0  0  0  0  0  0  0
    2.7583   -1.6974    0.9585 H   0  0  0  0  0  0  0  0  0  0  0  0
    2.9723   -2.2429   -0.7119 H   0  0  0  0  0  0  0  0  0  0  0  0
   -0.3173    0.8784   -1.9133 H   0  0  0  0  0  0  0  0  0  0  0  0
    0.0520    2.2773   -1.1673 H   0  0  0  0  0  0  0  0  0  0  0  0
   -1.9685    0.0364    2.1382 H   0  0  0  0  0  0  0  0  0  0  0  0
   -2.9265   -1.2129    1.4286 H   0  0  0  0  0  0  0  0  0  0  0  0
  1  9  2  0  0  0  0
  2  5  1  0  0  0  0
  2 20  1  0  0  0  0
  2 21  1  0  0  0  0
  3  9  1  0  0  0  0
  3 22  1  0  0  0  0
  3 23  1  0  0  0  0
  4  5  1  0  0  0  0
  4  6  1  0  0  0  0
  4  7  1  0  0  0  0
  4 10  1  0  0  0  0
  5  9  1  0  0  0  0
  5 11  1  0  0  0  0
  6  8  1  0  0  0  0
  6 12  1  0  0  0  0
  6 13  1  0  0  0  0
  7 14  1  0  0  0  0
  7 15  1  0  0  0  0
  7 16  1  0  0  0  0
  8 17  1  0  0  0  0
  8 18  1  0  0  0  0
  8 19  1  0  0  0  0
M  END
> <PUBCHEM_COMPOUND_CID>
854029

> <PUBCHEM_CONFORMER_RMSD>
0.6

> <PUBCHEM_CONFORMER_DIVERSEORDER>
3
16
15
7
8
21
18
10
19
14
20
1
6
13
17
12
9
5
2
4
11

> <PUBCHEM_MMFF94_PARTIAL_CHARGES>
9
1 -0.57
2 -0.99
20 0.36
21 0.36
22 0.37
23 0.37
3 -0.8
5 0.33
9 0.57

> <PUBCHEM_EFFECTIVE_ROTOR_COUNT>
3

> <PUBCHEM_PHARMACOPHORE_FEATURES>
6
1 1 acceptor
1 2 cation
1 2 donor
1 3 donor
1 7 hydrophobe
1 8 hydrophobe

> <PUBCHEM_HEAVY_ATOM_COUNT>
9

> <PUBCHEM_ATOM_DEF_STEREO_COUNT>
2

> <PUBCHEM_ATOM_UDEF_STEREO_COUNT>
0

> <PUBCHEM_BOND_DEF_STEREO_COUNT>
0

> <PUBCHEM_BOND_UDEF_STEREO_COUNT>
0

> <PUBCHEM_ISOTOPIC_ATOM_COUNT>
0

> <PUBCHEM_COMPONENT_COUNT>
1

> <PUBCHEM_CACTVS_TAUTO_COUNT>
2

> <PUBCHEM_CONFORMER_ID>
000D080D00000003

> <PUBCHEM_MMFF94_ENERGY>
11.776

> <PUBCHEM_FEATURE_SELFOVERLAP>
30.447

> <PUBCHEM_SHAPE_FINGERPRINT>
12716758 59 17696482049983735642
14128692 85 18187361039207851734
15310529 11 18059278976774701150
20711978 78 17894634764046668396
20711985 344 17844822562097169309
21061003 4 18042121123793566042
21922407 69 17386570145997789579
23552423 10 18410577271001951166
24536 1 17561084717410197884
29004967 10 18129659690772959593
5084963 1 18041296390982452994

> <PUBCHEM_SHAPE_MULTIPOLES>
169.38
3.37
1.54
1.04
0.67
0.25
0
-1.33
0.44
0.66
-0.18
-0.5
0.1
0.32

> <PUBCHEM_SHAPE_SELFOVERLAP>
311.487

> <PUBCHEM_SHAPE_VOLUME>
107.2

> <PUBCHEM_COORDINATE_TYPE>
2
5
10

$$$$

