583012
  -OEChem-06241222443D

 40 42  0     0  0  0  0  0  0999 V2000
    1.0721   -0.4601   -0.7842 O   0  0  0  0  0  0  0  0  0  0  0  0
    2.7710    0.6323    0.4113 N   0  0  0  0  0  0  0  0  0  0  0  0
   -0.8972    1.2284   -0.0337 N   0  0  0  0  0  0  0  0  0  0  0  0
   -1.7683    0.4422    0.6141 N   0  0  0  0  0  0  0  0  0  0  0  0
   -1.3351    1.7794   -1.1743 N   0  0  0  0  0  0  0  0  0  0  0  0
   -2.5799    1.3362   -1.3017 N   0  0  0  0  0  0  0  0  0  0  0  0
    3.1518    1.7474    1.2923 C   0  0  0  0  0  0  0  0  0  0  0  0
    3.8032   -0.3410    0.1170 C   0  0  0  0  0  0  0  0  0  0  0  0
    1.4459    0.4549   -0.0459 C   0  0  0  0  0  0  0  0  0  0  0  0
    0.4316    1.4679    0.4661 C   0  0  0  0  0  0  0  0  0  0  0  0
    3.5785    2.9630    0.4958 C   0  0  0  0  0  0  0  0  0  0  0  0
    3.4305   -1.6499   -0.0305 C   0  0  0  0  0  0  0  0  0  0  0  0
    5.0930    0.1030    0.0020 C   0  0  0  0  0  0  0  0  0  0  0  0
   -2.8055    0.5419   -0.2187 C   0  0  0  0  0  0  0  0  0  0  0  0
    4.4239   -2.5869   -0.3144 C   0  0  0  0  0  0  0  0  0  0  0  0
    6.0864   -0.8341   -0.2820 C   0  0  0  0  0  0  0  0  0  0  0  0
   -4.0584   -0.1255   -0.0041 C   0  0  0  0  0  0  0  0  0  0  0  0
    5.7518   -2.1791   -0.4402 C   0  0  0  0  0  0  0  0  0  0  0  0
   -4.2370   -0.9283    1.1227 C   0  0  0  0  0  0  0  0  0  0  0  0
   -5.0973    0.0286   -0.9222 C   0  0  0  0  0  0  0  0  0  0  0  0
   -5.4542   -1.5771    1.3312 C   0  0  0  0  0  0  0  0  0  0  0  0
   -6.3144   -0.6202   -0.7136 C   0  0  0  0  0  0  0  0  0  0  0  0
   -6.4927   -1.4229    0.4131 C   0  0  0  0  0  0  0  0  0  0  0  0
    2.3270    2.0194    1.9553 H   0  0  0  0  0  0  0  0  0  0  0  0
    3.9572    1.4267    1.9648 H   0  0  0  0  0  0  0  0  0  0  0  0
    0.3680    1.4121    1.5574 H   0  0  0  0  0  0  0  0  0  0  0  0
    0.7116    2.4802    0.1655 H   0  0  0  0  0  0  0  0  0  0  0  0
    4.3149    2.7628   -0.2839 H   0  0  0  0  0  0  0  0  0  0  0  0
    2.7211    3.4177   -0.0103 H   0  0  0  0  0  0  0  0  0  0  0  0
    3.9947    3.7212    1.1674 H   0  0  0  0  0  0  0  0  0  0  0  0
    2.4271   -2.0254    0.1277 H   0  0  0  0  0  0  0  0  0  0  0  0
    5.4165    1.1253    0.1258 H   0  0  0  0  0  0  0  0  0  0  0  0
    4.1667   -3.6367   -0.4212 H   0  0  0  0  0  0  0  0  0  0  0  0
    7.1214   -0.5183   -0.3764 H   0  0  0  0  0  0  0  0  0  0  0  0
    6.5260   -2.9093   -0.6567 H   0  0  0  0  0  0  0  0  0  0  0  0
   -3.4498   -1.0712    1.8587 H   0  0  0  0  0  0  0  0  0  0  0  0
   -4.9884    0.6474   -1.8095 H   0  0  0  0  0  0  0  0  0  0  0  0
   -5.5935   -2.2024    2.2082 H   0  0  0  0  0  0  0  0  0  0  0  0
   -7.1234   -0.5005   -1.4282 H   0  0  0  0  0  0  0  0  0  0  0  0
   -7.4404   -1.9280    0.5754 H   0  0  0  0  0  0  0  0  0  0  0  0
  1  9  2  0  0  0  0
  2  7  1  0  0  0  0
  2  8  1  0  0  0  0
  2  9  1  0  0  0  0
  3  4  1  0  0  0  0
  3  5  1  0  0  0  0
  3 10  1  0  0  0  0
  4 14  2  0  0  0  0
  5  6  2  0  0  0  0
  6 14  1  0  0  0  0
  7 11  1  0  0  0  0
  7 24  1  0  0  0  0
  7 25  1  0  0  0  0
  8 12  2  0  0  0  0
  8 13  1  0  0  0  0
  9 10  1  0  0  0  0
 10 26  1  0  0  0  0
 10 27  1  0  0  0  0
 11 28  1  0  0  0  0
 11 29  1  0  0  0  0
 11 30  1  0  0  0  0
 12 15  1  0  0  0  0
 12 31  1  0  0  0  0
 13 16  2  0  0  0  0
 13 32  1  0  0  0  0
 14 17  1  0  0  0  0
 15 18  2  0  0  0  0
 15 33  1  0  0  0  0
 16 18  1  0  0  0  0
 16 34  1  0  0  0  0
 17 19  2  0  0  0  0
 17 20  1  0  0  0  0
 18 35  1  0  0  0  0
 19 21  1  0  0  0  0
 19 36  1  0  0  0  0
 20 22  2  0  0  0  0
 20 37  1  0  0  0  0
 21 23  2  0  0  0  0
 21 38  1  0  0  0  0
 22 23  1  0  0  0  0
 22 39  1  0  0  0  0
 23 40  1  0  0  0  0
M  END
> <PUBCHEM_COMPOUND_CID>
583012

> <PUBCHEM_CONFORMER_RMSD>
0.8

> <PUBCHEM_CONFORMER_DIVERSEORDER>
1
61
93
107
86
96
35
4
82
79
63
75
8
97
18
76
52
51
85
37
56
105
84
53
91
29
90
21
102
26
34
15
55
54
23
16
57
41
64
60
30
33
92
24
103
19
74
20
27
9
50
68
100
88
46
72
101
59
42
83
70
98
3
5
48
25
44
78
6
12
43
13
95
81
47
17
67
32
94
36
2
73
14
99
69
49
38
71
58
7
87
39
62
31
89
80
40
10
11
28
66
65
106
22
45
77
104

> <PUBCHEM_MMFF94_PARTIAL_CHARGES>
32
1 -0.57
10 0.32
12 -0.15
13 -0.15
14 0.46
15 -0.15
16 -0.15
17 0.05
18 -0.15
19 -0.15
2 -0.48
20 -0.15
21 -0.15
22 -0.15
23 -0.15
3 0.58
31 0.15
32 0.15
33 0.15
34 0.15
35 0.15
36 0.15
37 0.15
38 0.15
39 0.15
4 -0.71
40 0.15
5 -0.42
6 -0.23
7 0.3
8 0.12
9 0.57

> <PUBCHEM_EFFECTIVE_ROTOR_COUNT>
6

> <PUBCHEM_PHARMACOPHORE_FEATURES>
5
1 1 acceptor
3 4 6 14 cation
5 3 4 5 6 14 rings
6 17 19 20 21 22 23 rings
6 8 12 13 15 16 18 rings

> <PUBCHEM_HEAVY_ATOM_COUNT>
23

> <PUBCHEM_ATOM_DEF_STEREO_COUNT>
0

> <PUBCHEM_ATOM_UDEF_STEREO_COUNT>
0

> <PUBCHEM_BOND_DEF_STEREO_COUNT>
0

> <PUBCHEM_BOND_UDEF_STEREO_COUNT>
0

> <PUBCHEM_ISOTOPIC_ATOM_COUNT>
0

> <PUBCHEM_COMPONENT_COUNT>
1

> <PUBCHEM_CACTVS_TAUTO_COUNT>
1

> <PUBCHEM_CONFORMER_ID>
0008E56400000001

> <PUBCHEM_MMFF94_ENERGY>
69.786

> <PUBCHEM_FEATURE_SELFOVERLAP>
25.371

> <PUBCHEM_SHAPE_FINGERPRINT>
11578080 2 16589734248787173474
117089 54 17900531578420852214
12107183 9 18042674191143583313
12236239 1 16732703835233843481
12403259 118 16008740330174367745
12596602 18 16226053262495931979
12616971 3 17168150022336304509
12633257 1 17385442103097536279
12730499 353 18337389328130893352
12760667 363 18408039633041766739
12788726 201 14764078899428967437
13402501 40 18413385445079877227
13533116 47 18187082815052074464
13673619 4 18410006667680682508
13685833 64 18409165515072524906
13782708 43 18271809059670177530
13914758 101 17676205815055441577
13955234 65 18115595838122845720
14294032 229 16414086381771447493
14341114 176 18186519904101277608
14341114 328 16515678910629367411
14350574 20 18410292523492308460
14848160 23 18342739598623644219
14849402 71 16371303112749517736
14950920 106 17603580790817214587
15183329 4 15052020052710014087
15238133 3 14779260899728736546
15537594 2 18041002830178827014
15880784 105 18261110730222768819
17844677 252 18334292067762023905
17870717 6 17561083605889458923
18222031 100 17203612579335533700
20028762 73 17749113287519586646
20281389 69 7565343128406216679
21033650 10 16701743864619312677
21049683 271 18410569575370850228
21150785 3 17275097328369174406
21267235 1 18114177584455987046
21623969 137 18187363259490114462
21682296 61 18334291011173494063
22061861 79 18413111654147156135
221357 26 18411983589529200050
22849339 104 16199855182109055163
2303208 19 18201434753678339099
23522609 53 18119777357578091400
23557571 272 17917720123084647557
23559900 14 17989204819781932829
239999 70 18130793313384610400
25122255 55 18343575240287965067
2838139 119 9727633873806930155
3004659 81 17060339591770978461
3089732 80 18341890792421130411
314194 84 18259989253572941711
33382 64 18334855043495408922
3411729 13 14635734981772638642
34797466 226 17417809496194266893
4073 2 18272366477705481449
439807 62 18201438133475183778
46194498 28 18130790040904621068
465052 167 18186800301225989078
5104073 3 18115030830737132272
5718773 13 18198626725910441714
5912855 24 17462017469928259966
6608658 132 15123237692757265047
7495541 125 18410572899168355492
8863177 126 18410854321983479691

> <PUBCHEM_SHAPE_MULTIPOLES>
442.55
17.47
2.49
1.07
9.84
0.3
-0.06
-10.65
-0.16
-3.55
-0.19
1.03
0.12
2.02

> <PUBCHEM_SHAPE_SELFOVERLAP>
952.699

> <PUBCHEM_SHAPE_VOLUME>
244.4

> <PUBCHEM_COORDINATE_TYPE>
2
5
10

$$$$

