8780
  -OEChem-06261203052D

 63 62  0     1  0  0  0  0  0999 V2000
   14.1244    2.0000    0.0000 O   0  0  0  0  0  0  0  0  0  0  0  0
    2.8660    1.5000    0.0000 O   0  0  0  0  0  0  0  0  0  0  0  0
   14.9904    0.5000    0.0000 O   0  0  0  0  0  0  0  0  0  0  0  0
    3.7320    3.0000    0.0000 O   0  0  0  0  0  0  0  0  0  0  0  0
   13.2583    0.5000    0.0000 C   0  0  0  0  0  0  0  0  0  0  0  0
   13.2583    1.5000    0.0000 C   0  0  3  0  0  0  0  0  0  0  0  0
   12.3923    0.0000    0.0000 C   0  0  0  0  0  0  0  0  0  0  0  0
   12.3923   -1.0000    0.0000 C   0  0  0  0  0  0  0  0  0  0  0  0
   12.3923    2.0000    0.0000 C   0  0  0  0  0  0  0  0  0  0  0  0
    8.0622    1.5000    0.0000 C   0  0  0  0  0  0  0  0  0  0  0  0
    7.1962    2.0000    0.0000 C   0  0  0  0  0  0  0  0  0  0  0  0
   11.5263   -1.5000    0.0000 C   0  0  0  0  0  0  0  0  0  0  0  0
    8.9282    2.0000    0.0000 C   0  0  0  0  0  0  0  0  0  0  0  0
    6.3301    1.5000    0.0000 C   0  0  0  0  0  0  0  0  0  0  0  0
    9.7942    1.5000    0.0000 C   0  0  0  0  0  0  0  0  0  0  0  0
   11.5263   -2.5000    0.0000 C   0  0  0  0  0  0  0  0  0  0  0  0
   11.5263    1.5000    0.0000 C   0  0  0  0  0  0  0  0  0  0  0  0
    5.4641    2.0000    0.0000 C   0  0  0  0  0  0  0  0  0  0  0  0
   10.6603    2.0000    0.0000 C   0  0  0  0  0  0  0  0  0  0  0  0
    4.5981    1.5000    0.0000 C   0  0  0  0  0  0  0  0  0  0  0  0
   10.6603   -3.0000    0.0000 C   0  0  0  0  0  0  0  0  0  0  0  0
   14.9904    1.5000    0.0000 C   0  0  0  0  0  0  0  0  0  0  0  0
    3.7320    2.0000    0.0000 C   0  0  0  0  0  0  0  0  0  0  0  0
   15.8564    2.0000    0.0000 C   0  0  0  0  0  0  0  0  0  0  0  0
    2.0000    2.0000    0.0000 C   0  0  0  0  0  0  0  0  0  0  0  0
   13.4704   -0.0826    0.0000 H   0  0  0  0  0  0  0  0  0  0  0  0
   13.8689    0.6077    0.0000 H   0  0  0  0  0  0  0  0  0  0  0  0
   13.9945    1.0750    0.0000 H   0  0  0  0  0  0  0  0  0  0  0  0
   12.1803    0.5826    0.0000 H   0  0  0  0  0  0  0  0  0  0  0  0
   11.7817   -0.1077    0.0000 H   0  0  0  0  0  0  0  0  0  0  0  0
   12.6044   -1.5826    0.0000 H   0  0  0  0  0  0  0  0  0  0  0  0
   13.0029   -0.8923    0.0000 H   0  0  0  0  0  0  0  0  0  0  0  0
   12.7908    2.4750    0.0000 H   0  0  0  0  0  0  0  0  0  0  0  0
   11.9938    2.4750    0.0000 H   0  0  0  0  0  0  0  0  0  0  0  0
    7.6636    1.0250    0.0000 H   0  0  0  0  0  0  0  0  0  0  0  0
    8.4607    1.0250    0.0000 H   0  0  0  0  0  0  0  0  0  0  0  0
    7.5947    2.4750    0.0000 H   0  0  0  0  0  0  0  0  0  0  0  0
    6.7976    2.4750    0.0000 H   0  0  0  0  0  0  0  0  0  0  0  0
   11.3142   -0.9174    0.0000 H   0  0  0  0  0  0  0  0  0  0  0  0
   10.9157   -1.6077    0.0000 H   0  0  0  0  0  0  0  0  0  0  0  0
    9.3267    2.4750    0.0000 H   0  0  0  0  0  0  0  0  0  0  0  0
    8.5297    2.4750    0.0000 H   0  0  0  0  0  0  0  0  0  0  0  0
    5.9316    1.0250    0.0000 H   0  0  0  0  0  0  0  0  0  0  0  0
    6.7287    1.0250    0.0000 H   0  0  0  0  0  0  0  0  0  0  0  0
    9.3957    1.0250    0.0000 H   0  0  0  0  0  0  0  0  0  0  0  0
   10.1928    1.0250    0.0000 H   0  0  0  0  0  0  0  0  0  0  0  0
    5.8626    2.4750    0.0000 H   0  0  0  0  0  0  0  0  0  0  0  0
    5.0656    2.4750    0.0000 H   0  0  0  0  0  0  0  0  0  0  0  0
   11.7383   -3.0826    0.0000 H   0  0  0  0  0  0  0  0  0  0  0  0
   12.1369   -2.3923    0.0000 H   0  0  0  0  0  0  0  0  0  0  0  0
   11.5263    0.8800    0.0000 H   0  0  0  0  0  0  0  0  0  0  0  0
   10.6603    2.6200    0.0000 H   0  0  0  0  0  0  0  0  0  0  0  0
    4.1996    1.0250    0.0000 H   0  0  0  0  0  0  0  0  0  0  0  0
    4.9966    1.0250    0.0000 H   0  0  0  0  0  0  0  0  0  0  0  0
   10.3503   -2.4631    0.0000 H   0  0  0  0  0  0  0  0  0  0  0  0
   10.1233   -3.3100    0.0000 H   0  0  0  0  0  0  0  0  0  0  0  0
   10.9703   -3.5369    0.0000 H   0  0  0  0  0  0  0  0  0  0  0  0
   16.1664    1.4631    0.0000 H   0  0  0  0  0  0  0  0  0  0  0  0
   16.3933    2.3100    0.0000 H   0  0  0  0  0  0  0  0  0  0  0  0
   15.5464    2.5369    0.0000 H   0  0  0  0  0  0  0  0  0  0  0  0
    2.3100    2.5369    0.0000 H   0  0  0  0  0  0  0  0  0  0  0  0
    1.4631    2.3100    0.0000 H   0  0  0  0  0  0  0  0  0  0  0  0
    1.6900    1.4631    0.0000 H   0  0  0  0  0  0  0  0  0  0  0  0
  1  6  1  0  0  0  0
  1 22  1  0  0  0  0
  2 23  1  0  0  0  0
  2 25  1  0  0  0  0
  3 22  2  0  0  0  0
  4 23  2  0  0  0  0
  5  6  1  0  0  0  0
  5  7  1  0  0  0  0
  5 26  1  0  0  0  0
  5 27  1  0  0  0  0
  6  9  1  0  0  0  0
  6 28  1  0  0  0  0
  7  8  1  0  0  0  0
  7 29  1  0  0  0  0
  7 30  1  0  0  0  0
  8 12  1  0  0  0  0
  8 31  1  0  0  0  0
  8 32  1  0  0  0  0
  9 17  1  0  0  0  0
  9 33  1  0  0  0  0
  9 34  1  0  0  0  0
 10 11  1  0  0  0  0
 10 13  1  0  0  0  0
 10 35  1  0  0  0  0
 10 36  1  0  0  0  0
 11 14  1  0  0  0  0
 11 37  1  0  0  0  0
 11 38  1  0  0  0  0
 12 16  1  0  0  0  0
 12 39  1  0  0  0  0
 12 40  1  0  0  0  0
 13 15  1  0  0  0  0
 13 41  1  0  0  0  0
 13 42  1  0  0  0  0
 14 18  1  0  0  0  0
 14 43  1  0  0  0  0
 14 44  1  0  0  0  0
 15 19  1  0  0  0  0
 15 45  1  0  0  0  0
 15 46  1  0  0  0  0
 16 21  1  0  0  0  0
 16 49  1  0  0  0  0
 16 50  1  0  0  0  0
 17 19  2  3  0  0  0
 17 51  1  0  0  0  0
 18 20  1  0  0  0  0
 18 47  1  0  0  0  0
 18 48  1  0  0  0  0
 19 52  1  0  0  0  0
 20 23  1  0  0  0  0
 20 53  1  0  0  0  0
 20 54  1  0  0  0  0
 21 55  1  0  0  0  0
 21 56  1  0  0  0  0
 21 57  1  0  0  0  0
 22 24  1  0  0  0  0
 24 58  1  0  0  0  0
 24 59  1  0  0  0  0
 24 60  1  0  0  0  0
 25 61  1  0  0  0  0
 25 62  1  0  0  0  0
 25 63  1  0  0  0  0
M  END
> <PUBCHEM_COMPOUND_CID>
8780

> <PUBCHEM_COMPOUND_CANONICALIZED>
1

> <PUBCHEM_CACTVS_COMPLEXITY>
363

> <PUBCHEM_CACTVS_HBOND_ACCEPTOR>
4

> <PUBCHEM_CACTVS_HBOND_DONOR>
0

> <PUBCHEM_CACTVS_ROTATABLE_BOND>
18

> <PUBCHEM_CACTVS_SUBSKEYS>
AAADcfB4OAAAAAAAAAAAAAAAAAAAAAAAAAAAAAAAAAAAAAAAAAAAGgAAAAAACBSggAICCAAABACIACDSCAAAAAAgAAAICAEAAAgAABIAAQACAAAEwAAIAAOIyKCAAAAAAAAAAAAAAAAAAAAAAAAAAAAAAA==

> <PUBCHEM_IUPAC_OPENEYE_NAME>
methyl 12-acetoxyoctadec-9-enoate

> <PUBCHEM_IUPAC_CAS_NAME>
12-acetyloxy-9-octadecenoic acid methyl ester

> <PUBCHEM_IUPAC_NAME>
methyl 12-acetyloxyoctadec-9-enoate

> <PUBCHEM_IUPAC_SYSTEMATIC_NAME>
methyl 12-acetyloxyoctadec-9-enoate

> <PUBCHEM_IUPAC_TRADITIONAL_NAME>
12-acetoxyoctadec-9-enoic acid methyl ester

> <PUBCHEM_IUPAC_INCHI>
InChI=1S/C21H38O4/c1-4-5-6-13-16-20(25-19(2)22)17-14-11-9-7-8-10-12-15-18-21(23)24-3/h11,14,20H,4-10,12-13,15-18H2,1-3H3

> <PUBCHEM_IUPAC_INCHIKEY>
CMOYPQWMTBSLJK-UHFFFAOYSA-N

> <PUBCHEM_XLOGP3_AA>
6.6

> <PUBCHEM_EXACT_MASS>
354.27701

> <PUBCHEM_MOLECULAR_FORMULA>
C21H38O4

> <PUBCHEM_MOLECULAR_WEIGHT>
354.52402

> <PUBCHEM_OPENEYE_CAN_SMILES>
CCCCCCC(CC=CCCCCCCCC(=O)OC)OC(=O)C

> <PUBCHEM_OPENEYE_ISO_SMILES>
CCCCCCC(CC=CCCCCCCCC(=O)OC)OC(=O)C

> <PUBCHEM_CACTVS_TPSA>
52.6

> <PUBCHEM_MONOISOTOPIC_WEIGHT>
354.27701

> <PUBCHEM_TOTAL_CHARGE>
0

> <PUBCHEM_HEAVY_ATOM_COUNT>
25

> <PUBCHEM_ATOM_DEF_STEREO_COUNT>
0

> <PUBCHEM_ATOM_UDEF_STEREO_COUNT>
1

> <PUBCHEM_BOND_DEF_STEREO_COUNT>
0

> <PUBCHEM_BOND_UDEF_STEREO_COUNT>
1

> <PUBCHEM_ISOTOPIC_ATOM_COUNT>
0

> <PUBCHEM_COMPONENT_COUNT>
1

> <PUBCHEM_CACTVS_TAUTO_COUNT>
1

> <PUBCHEM_COORDINATE_TYPE>
1
5
255

> <PUBCHEM_BONDANNOTATIONS>
17  19  1
6  28  3

$$$$

