11054
  -OEChem-06261205162D

 50 51  0     0  0  0  0  0  0999 V2000
    3.9621    0.0000    0.0000 Cl  0  0  0  0  0  0  0  0  0  0  0  0
    3.2018    4.1946    0.0000 S   0  0  0  0  0  0  0  0  0  0  0  0
    3.2018    7.1946    0.0000 O   0  0  0  0  0  0  0  0  0  0  0  0
    6.6590    9.2491    0.0000 N   0  0  0  0  0  0  0  0  0  0  0  0
    4.9502    7.2292    0.0000 N   0  0  0  0  0  0  0  0  0  0  0  0
    5.7988    8.7391    0.0000 C   0  0  0  0  0  0  0  0  0  0  0  0
    5.8104    7.7392    0.0000 C   0  0  0  0  0  0  0  0  0  0  0  0
    4.9617    6.2292    0.0000 C   0  0  0  0  0  0  0  0  0  0  0  0
    4.0678    5.6946    0.0000 C   0  0  0  0  0  0  0  0  0  0  0  0
    6.6474   10.2490    0.0000 C   0  0  0  0  0  0  0  0  0  0  0  0
    7.5307    8.7591    0.0000 C   0  0  0  0  0  0  0  0  0  0  0  0
    4.0678    4.6946    0.0000 C   0  0  0  0  0  0  0  0  0  0  0  0
    4.9617    4.1599    0.0000 C   0  0  0  0  0  0  0  0  0  0  0  0
    3.2018    6.1946    0.0000 C   0  0  0  0  0  0  0  0  0  0  0  0
    5.8678    5.7154    0.0000 C   0  0  0  0  0  0  0  0  0  0  0  0
    2.3358    5.6946    0.0000 C   0  0  0  0  0  0  0  0  0  0  0  0
    5.8678    4.6738    0.0000 C   0  0  0  0  0  0  0  0  0  0  0  0
    2.3358    4.6946    0.0000 C   0  0  0  0  0  0  0  0  0  0  0  0
    7.5076   10.7590    0.0000 C   0  0  0  0  0  0  0  0  0  0  0  0
    8.3909    9.2691    0.0000 C   0  0  0  0  0  0  0  0  0  0  0  0
    4.9502    3.1600    0.0000 C   0  0  0  0  0  0  0  0  0  0  0  0
    1.4418    6.2292    0.0000 C   0  0  0  0  0  0  0  0  0  0  0  0
    1.4418    4.1599    0.0000 C   0  0  0  0  0  0  0  0  0  0  0  0
    0.5357    5.7154    0.0000 C   0  0  0  0  0  0  0  0  0  0  0  0
    0.5357    4.6738    0.0000 C   0  0  0  0  0  0  0  0  0  0  0  0
    5.5800    9.3192    0.0000 H   0  0  0  0  0  0  0  0  0  0  0  0
    5.1895    8.6244    0.0000 H   0  0  0  0  0  0  0  0  0  0  0  0
    6.0291    7.1590    0.0000 H   0  0  0  0  0  0  0  0  0  0  0  0
    6.4197    7.8539    0.0000 H   0  0  0  0  0  0  0  0  0  0  0  0
    4.4097    7.5330    0.0000 H   0  0  0  0  0  0  0  0  0  0  0  0
    7.1377    8.2796    0.0000 H   0  0  0  0  0  0  0  0  0  0  0  0
    7.9347    8.2888    0.0000 H   0  0  0  0  0  0  0  0  0  0  0  0
    6.4286   10.8291    0.0000 H   0  0  0  0  0  0  0  0  0  0  0  0
    6.0381   10.1343    0.0000 H   0  0  0  0  0  0  0  0  0  0  0  0
    6.4035    6.0275    0.0000 H   0  0  0  0  0  0  0  0  0  0  0  0
    6.4035    4.3617    0.0000 H   0  0  0  0  0  0  0  0  0  0  0  0
    7.8238   10.2257    0.0000 H   0  0  0  0  0  0  0  0  0  0  0  0
    8.7071    8.7358    0.0000 H   0  0  0  0  0  0  0  0  0  0  0  0
    8.9242    9.5853    0.0000 H   0  0  0  0  0  0  0  0  0  0  0  0
    8.0747    9.8024    0.0000 H   0  0  0  0  0  0  0  0  0  0  0  0
    8.0409   11.0752    0.0000 H   0  0  0  0  0  0  0  0  0  0  0  0
    7.1914   11.2923    0.0000 H   0  0  0  0  0  0  0  0  0  0  0  0
    4.3302    3.1672    0.0000 H   0  0  0  0  0  0  0  0  0  0  0  0
    4.9430    2.5400    0.0000 H   0  0  0  0  0  0  0  0  0  0  0  0
    5.5701    3.1528    0.0000 H   0  0  0  0  0  0  0  0  0  0  0  0
    1.4490    6.8492    0.0000 H   0  0  0  0  0  0  0  0  0  0  0  0
    1.4490    3.5400    0.0000 H   0  0  0  0  0  0  0  0  0  0  0  0
    0.0000    6.0275    0.0000 H   0  0  0  0  0  0  0  0  0  0  0  0
    0.0000    4.3617    0.0000 H   0  0  0  0  0  0  0  0  0  0  0  0
    4.9621    0.0000    0.0000 H   0  0  0  0  0  0  0  0  0  0  0  0
  1 50  1  0  0  0  0
  2 12  1  0  0  0  0
  2 18  1  0  0  0  0
  3 14  2  0  0  0  0
  4  6  1  0  0  0  0
  4 10  1  0  0  0  0
  4 11  1  0  0  0  0
  5  7  1  0  0  0  0
  5  8  1  0  0  0  0
  5 30  1  0  0  0  0
  6  7  1  0  0  0  0
  6 26  1  0  0  0  0
  6 27  1  0  0  0  0
  7 28  1  0  0  0  0
  7 29  1  0  0  0  0
  8  9  2  0  0  0  0
  8 15  1  0  0  0  0
  9 12  1  0  0  0  0
  9 14  1  0  0  0  0
 10 19  1  0  0  0  0
 10 33  1  0  0  0  0
 10 34  1  0  0  0  0
 11 20  1  0  0  0  0
 11 31  1  0  0  0  0
 11 32  1  0  0  0  0
 12 13  2  0  0  0  0
 13 17  1  0  0  0  0
 13 21  1  0  0  0  0
 14 16  1  0  0  0  0
 15 17  2  0  0  0  0
 15 35  1  0  0  0  0
 16 18  1  0  0  0  0
 16 22  2  0  0  0  0
 17 36  1  0  0  0  0
 18 23  2  0  0  0  0
 19 37  1  0  0  0  0
 19 41  1  0  0  0  0
 19 42  1  0  0  0  0
 20 38  1  0  0  0  0
 20 39  1  0  0  0  0
 20 40  1  0  0  0  0
 21 43  1  0  0  0  0
 21 44  1  0  0  0  0
 21 45  1  0  0  0  0
 22 24  1  0  0  0  0
 22 46  1  0  0  0  0
 23 25  1  0  0  0  0
 23 47  1  0  0  0  0
 24 25  2  0  0  0  0
 24 48  1  0  0  0  0
 25 49  1  0  0  0  0
M  END
> <PUBCHEM_COMPOUND_CID>
11054

> <PUBCHEM_COMPOUND_CANONICALIZED>
1

> <PUBCHEM_CACTVS_COMPLEXITY>
426

> <PUBCHEM_CACTVS_HBOND_ACCEPTOR>
4

> <PUBCHEM_CACTVS_HBOND_DONOR>
2

> <PUBCHEM_CACTVS_ROTATABLE_BOND>
6

> <PUBCHEM_CACTVS_SUBSKEYS>
AAADceB7IABEAAAAAAAAAAAAAAAAAAAAAAA0YIAAAAAAAACRQAAAHgQQAAAADAzB2AQywYPAAAiIAqRSQACCAAAlChAIiJkIZMgIYDrglZGUIYxgkADoyccYiMCOCAACACAGAAAQAAQAQAwAAAAAAAAAAA==

> <PUBCHEM_IUPAC_OPENEYE_NAME>
1-[2-(diethylamino)ethylamino]-4-methyl-thioxanthen-9-one hydrochloride

> <PUBCHEM_IUPAC_CAS_NAME>
1-[2-(diethylamino)ethylamino]-4-methyl-9-thioxanthenone hydrochloride

> <PUBCHEM_IUPAC_NAME>
1-[2-(diethylamino)ethylamino]-4-methylthioxanthen-9-one hydrochloride

> <PUBCHEM_IUPAC_SYSTEMATIC_NAME>
1-[2-(diethylamino)ethylamino]-4-methyl-thioxanthen-9-one hydrochloride

> <PUBCHEM_IUPAC_TRADITIONAL_NAME>
1-[2-(diethylamino)ethylamino]-4-methyl-thioxanthen-9-one hydrochloride

> <PUBCHEM_IUPAC_INCHI>
InChI=1S/C20H24N2OS.ClH/c1-4-22(5-2)13-12-21-16-11-10-14(3)20-18(16)19(23)15-8-6-7-9-17(15)24-20;/h6-11,21H,4-5,12-13H2,1-3H3;1H

> <PUBCHEM_IUPAC_INCHIKEY>
LAOOXBLMIJHMFO-UHFFFAOYSA-N

> <PUBCHEM_EXACT_MASS>
376.137612

> <PUBCHEM_MOLECULAR_FORMULA>
C20H25ClN2OS

> <PUBCHEM_MOLECULAR_WEIGHT>
376.9433

> <PUBCHEM_OPENEYE_CAN_SMILES>
CCN(CC)CCNC1=C2C(=C(C=C1)C)SC3=CC=CC=C3C2=O.Cl

> <PUBCHEM_OPENEYE_ISO_SMILES>
CCN(CC)CCNC1=C2C(=C(C=C1)C)SC3=CC=CC=C3C2=O.Cl

> <PUBCHEM_CACTVS_TPSA>
57.6

> <PUBCHEM_MONOISOTOPIC_WEIGHT>
376.137612

> <PUBCHEM_TOTAL_CHARGE>
0

> <PUBCHEM_HEAVY_ATOM_COUNT>
25

> <PUBCHEM_ATOM_DEF_STEREO_COUNT>
0

> <PUBCHEM_ATOM_UDEF_STEREO_COUNT>
0

> <PUBCHEM_BOND_DEF_STEREO_COUNT>
0

> <PUBCHEM_BOND_UDEF_STEREO_COUNT>
0

> <PUBCHEM_ISOTOPIC_ATOM_COUNT>
0

> <PUBCHEM_COMPONENT_COUNT>
2

> <PUBCHEM_CACTVS_TAUTO_COUNT>
5

> <PUBCHEM_COORDINATE_TYPE>
1
5
255

> <PUBCHEM_BONDANNOTATIONS>
12  13  8
13  17  8
14  16  8
15  17  8
16  18  8
16  22  8
18  23  8
2  12  8
2  18  8
22  24  8
23  25  8
24  25  8
8  15  8
8  9  8
9  12  8
9  14  8

$$$$

