47205781
  -OEChem-06241223002D

 37 37  0     0  0  0  0  0  0999 V2000
    7.1962    1.0000    0.0000 O   0  0  0  0  0  0  0  0  0  0  0  0
    4.5981   -1.5000    0.0000 O   0  0  0  0  0  0  0  0  0  0  0  0
    8.0622   -0.5000    0.0000 N   0  0  0  0  0  0  0  0  0  0  0  0
    5.4641    0.0000    0.0000 N   0  0  0  0  0  0  0  0  0  0  0  0
   11.5263   -0.5000    0.0000 N   0  0  0  0  0  0  0  0  0  0  0  0
    8.9282    0.0000    0.0000 C   0  0  0  0  0  0  0  0  0  0  0  0
    9.7942   -0.5000    0.0000 C   0  0  0  0  0  0  0  0  0  0  0  0
    3.7320    0.0000    0.0000 C   0  0  0  0  0  0  0  0  0  0  0  0
    2.8660   -0.5000    0.0000 C   0  0  0  0  0  0  0  0  0  0  0  0
    6.3301   -0.5000    0.0000 C   0  0  0  0  0  0  0  0  0  0  0  0
   10.6603    0.0000    0.0000 C   0  0  0  0  0  0  0  0  0  0  0  0
    7.1962    0.0000    0.0000 C   0  0  0  0  0  0  0  0  0  0  0  0
    4.5981   -0.5000    0.0000 C   0  0  0  0  0  0  0  0  0  0  0  0
    2.0000    0.0000    0.0000 C   0  0  0  0  0  0  0  0  0  0  0  0
   10.6603    1.0000    0.0000 C   0  0  0  0  0  0  0  0  0  0  0  0
   11.5263    1.5000    0.0000 C   0  0  0  0  0  0  0  0  0  0  0  0
   12.3923    0.0000    0.0000 C   0  0  0  0  0  0  0  0  0  0  0  0
   12.3923    1.0000    0.0000 C   0  0  0  0  0  0  0  0  0  0  0  0
    9.3267    0.4749    0.0000 H   0  0  0  0  0  0  0  0  0  0  0  0
    8.5297    0.4749    0.0000 H   0  0  0  0  0  0  0  0  0  0  0  0
    9.3957   -0.9749    0.0000 H   0  0  0  0  0  0  0  0  0  0  0  0
   10.1928   -0.9749    0.0000 H   0  0  0  0  0  0  0  0  0  0  0  0
    4.1306    0.4749    0.0000 H   0  0  0  0  0  0  0  0  0  0  0  0
    3.3335    0.4749    0.0000 H   0  0  0  0  0  0  0  0  0  0  0  0
    2.4675   -0.9749    0.0000 H   0  0  0  0  0  0  0  0  0  0  0  0
    3.2646   -0.9749    0.0000 H   0  0  0  0  0  0  0  0  0  0  0  0
    5.9316   -0.9749    0.0000 H   0  0  0  0  0  0  0  0  0  0  0  0
    6.7287   -0.9749    0.0000 H   0  0  0  0  0  0  0  0  0  0  0  0
    8.0622   -1.1200    0.0000 H   0  0  0  0  0  0  0  0  0  0  0  0
    5.4641    0.6200    0.0000 H   0  0  0  0  0  0  0  0  0  0  0  0
    2.3100    0.5369    0.0000 H   0  0  0  0  0  0  0  0  0  0  0  0
    1.4631    0.3100    0.0000 H   0  0  0  0  0  0  0  0  0  0  0  0
    1.6900   -0.5369    0.0000 H   0  0  0  0  0  0  0  0  0  0  0  0
   10.1233    1.3100    0.0000 H   0  0  0  0  0  0  0  0  0  0  0  0
   11.5263    2.1200    0.0000 H   0  0  0  0  0  0  0  0  0  0  0  0
   12.9292   -0.3100    0.0000 H   0  0  0  0  0  0  0  0  0  0  0  0
   12.9292    1.3100    0.0000 H   0  0  0  0  0  0  0  0  0  0  0  0
  1 12  2  0  0  0  0
  2 13  2  0  0  0  0
  3  6  1  0  0  0  0
  3 12  1  0  0  0  0
  3 29  1  0  0  0  0
  4 10  1  0  0  0  0
  4 13  1  0  0  0  0
  4 30  1  0  0  0  0
  5 11  1  0  0  0  0
  5 17  2  0  0  0  0
  6  7  1  0  0  0  0
  6 19  1  0  0  0  0
  6 20  1  0  0  0  0
  7 11  1  0  0  0  0
  7 21  1  0  0  0  0
  7 22  1  0  0  0  0
  8  9  1  0  0  0  0
  8 13  1  0  0  0  0
  8 23  1  0  0  0  0
  8 24  1  0  0  0  0
  9 14  1  0  0  0  0
  9 25  1  0  0  0  0
  9 26  1  0  0  0  0
 10 12  1  0  0  0  0
 10 27  1  0  0  0  0
 10 28  1  0  0  0  0
 11 15  2  0  0  0  0
 14 31  1  0  0  0  0
 14 32  1  0  0  0  0
 14 33  1  0  0  0  0
 15 16  1  0  0  0  0
 15 34  1  0  0  0  0
 16 18  2  0  0  0  0
 16 35  1  0  0  0  0
 17 18  1  0  0  0  0
 17 36  1  0  0  0  0
 18 37  1  0  0  0  0
M  END
> <PUBCHEM_COMPOUND_CID>
47205781

> <PUBCHEM_COMPOUND_CANONICALIZED>
1

> <PUBCHEM_CACTVS_COMPLEXITY>
269

> <PUBCHEM_CACTVS_HBOND_ACCEPTOR>
3

> <PUBCHEM_CACTVS_HBOND_DONOR>
2

> <PUBCHEM_CACTVS_ROTATABLE_BOND>
7

> <PUBCHEM_CACTVS_SUBSKEYS>
AAADceBzMAAAAAAAAAAAAAAAAAAAAAAAAAAsAAAAAAAAAAABgAAAHgAQAAAACAjBlgQ+gJLIEACoATV3VACCgCAxAiAI2KG4ZJgIYPLA0bGUIAhglgDIyAcQgAAAAAAAAAAAAAAAAAAAAAAAAAAAAAAAAA==

> <PUBCHEM_IUPAC_OPENEYE_NAME>
N-[2-oxo-2-[2-(2-pyridyl)ethylamino]ethyl]butanamide

> <PUBCHEM_IUPAC_CAS_NAME>
N-[2-oxo-2-[2-(2-pyridinyl)ethylamino]ethyl]butanamide

> <PUBCHEM_IUPAC_NAME>
N-[2-oxo-2-(2-pyridin-2-ylethylamino)ethyl]butanamide

> <PUBCHEM_IUPAC_SYSTEMATIC_NAME>
N-[2-oxidanylidene-2-(2-pyridin-2-ylethylamino)ethyl]butanamide

> <PUBCHEM_IUPAC_TRADITIONAL_NAME>
N-[2-keto-2-[2-(2-pyridyl)ethylamino]ethyl]butyramide

> <PUBCHEM_IUPAC_INCHI>
InChI=1S/C13H19N3O2/c1-2-5-12(17)16-10-13(18)15-9-7-11-6-3-4-8-14-11/h3-4,6,8H,2,5,7,9-10H2,1H3,(H,15,18)(H,16,17)

> <PUBCHEM_IUPAC_INCHIKEY>
QQZVRMKHZWFZRR-UHFFFAOYSA-N

> <PUBCHEM_XLOGP3_AA>
0.6

> <PUBCHEM_EXACT_MASS>
249.147727

> <PUBCHEM_MOLECULAR_FORMULA>
C13H19N3O2

> <PUBCHEM_MOLECULAR_WEIGHT>
249.30886

> <PUBCHEM_OPENEYE_CAN_SMILES>
CCCC(=O)NCC(=O)NCCC1=CC=CC=N1

> <PUBCHEM_OPENEYE_ISO_SMILES>
CCCC(=O)NCC(=O)NCCC1=CC=CC=N1

> <PUBCHEM_CACTVS_TPSA>
71.1

> <PUBCHEM_MONOISOTOPIC_WEIGHT>
249.147727

> <PUBCHEM_TOTAL_CHARGE>
0

> <PUBCHEM_HEAVY_ATOM_COUNT>
18

> <PUBCHEM_ATOM_DEF_STEREO_COUNT>
0

> <PUBCHEM_ATOM_UDEF_STEREO_COUNT>
0

> <PUBCHEM_BOND_DEF_STEREO_COUNT>
0

> <PUBCHEM_BOND_UDEF_STEREO_COUNT>
0

> <PUBCHEM_ISOTOPIC_ATOM_COUNT>
0

> <PUBCHEM_COMPONENT_COUNT>
1

> <PUBCHEM_CACTVS_TAUTO_COUNT>
8

> <PUBCHEM_COORDINATE_TYPE>
1
5
255

> <PUBCHEM_BONDANNOTATIONS>
11  15  8
15  16  8
16  18  8
17  18  8
5  11  8
5  17  8

$$$$

