4147
  -OEChem-06251223553D

 46 47  0     0  0  0  0  0  0999 V2000
   -1.4458   -3.9076    1.0990 O   0  0  0  0  0  0  0  0  0  0  0  0
   -3.1161    4.0702   -1.1341 O   0  0  0  0  0  0  0  0  0  0  0  0
   -1.7130    5.9555    0.2065 O   0  0  0  0  0  0  0  0  0  0  0  0
   -1.8180    4.6440    0.6905 N   0  0  0  0  0  0  0  0  0  0  0  0
   -3.6389   -3.3451   -0.6388 C   0  0  0  0  0  0  0  0  0  0  0  0
   -2.1819   -3.1333   -1.0624 C   0  0  0  0  0  0  0  0  0  0  0  0
   -4.1334   -2.2890    0.3542 C   0  0  0  0  0  0  0  0  0  0  0  0
   -1.2251   -3.2000    0.1188 C   0  0  0  0  0  0  0  0  0  0  0  0
    0.0217   -2.3800    0.0776 C   0  0  0  0  0  0  0  0  0  0  0  0
    2.3197   -0.8691    0.0028 C   0  0  0  0  0  0  0  0  0  0  0  0
    0.5932   -2.1096   -1.1446 C   0  0  0  0  0  0  0  0  0  0  0  0
    0.5510   -1.9265    1.2641 C   0  0  0  0  0  0  0  0  0  0  0  0
    1.7584   -1.3437   -1.1825 C   0  0  0  0  0  0  0  0  0  0  0  0
    1.7161   -1.1604    1.2261 C   0  0  0  0  0  0  0  0  0  0  0  0
    3.5285   -0.0748   -0.0357 C   0  0  0  0  0  0  0  0  0  0  0  0
   -4.0408   -0.8902   -0.1852 C   0  0  0  0  0  0  0  0  0  0  0  0
    4.7748   -0.6978    0.0335 C   0  0  0  0  0  0  0  0  0  0  0  0
    3.4479    1.3137   -0.1428 C   0  0  0  0  0  0  0  0  0  0  0  0
   -3.3657    0.0969    0.4227 C   0  0  0  0  0  0  0  0  0  0  0  0
    5.9402    0.0677   -0.0039 C   0  0  0  0  0  0  0  0  0  0  0  0
    4.6135    2.0790   -0.1804 C   0  0  0  0  0  0  0  0  0  0  0  0
    5.8595    1.4560   -0.1109 C   0  0  0  0  0  0  0  0  0  0  0  0
   -3.2836    1.4409   -0.1048 C   0  0  0  0  0  0  0  0  0  0  0  0
   -2.6059    2.4194    0.5113 C   0  0  0  0  0  0  0  0  0  0  0  0
   -2.5564    3.7838   -0.0809 C   0  0  0  0  0  0  0  0  0  0  0  0
   -3.7548   -4.3372   -0.1853 H   0  0  0  0  0  0  0  0  0  0  0  0
   -4.2717   -3.3334   -1.5351 H   0  0  0  0  0  0  0  0  0  0  0  0
   -1.8935   -3.9222   -1.7665 H   0  0  0  0  0  0  0  0  0  0  0  0
   -2.0881   -2.1725   -1.5783 H   0  0  0  0  0  0  0  0  0  0  0  0
   -5.1871   -2.4944    0.5799 H   0  0  0  0  0  0  0  0  0  0  0  0
   -3.5978   -2.3779    1.3062 H   0  0  0  0  0  0  0  0  0  0  0  0
    0.1871   -2.4829   -2.0790 H   0  0  0  0  0  0  0  0  0  0  0  0
    0.0879   -2.1409    2.2223 H   0  0  0  0  0  0  0  0  0  0  0  0
    2.2187   -1.1292   -2.1442 H   0  0  0  0  0  0  0  0  0  0  0  0
    2.1399   -0.7969    2.1594 H   0  0  0  0  0  0  0  0  0  0  0  0
   -4.5703   -0.6927   -1.1148 H   0  0  0  0  0  0  0  0  0  0  0  0
    4.8557   -1.7790    0.1170 H   0  0  0  0  0  0  0  0  0  0  0  0
    2.4846    1.8154   -0.1980 H   0  0  0  0  0  0  0  0  0  0  0  0
   -2.8440   -0.1064    1.3545 H   0  0  0  0  0  0  0  0  0  0  0  0
    6.9106   -0.4172    0.0500 H   0  0  0  0  0  0  0  0  0  0  0  0
    4.5510    3.1601   -0.2636 H   0  0  0  0  0  0  0  0  0  0  0  0
    6.7670    2.0520   -0.1402 H   0  0  0  0  0  0  0  0  0  0  0  0
   -3.8030    1.6324   -1.0402 H   0  0  0  0  0  0  0  0  0  0  0  0
   -2.0817    2.2440    1.4460 H   0  0  0  0  0  0  0  0  0  0  0  0
   -1.3013    4.4188    1.5335 H   0  0  0  0  0  0  0  0  0  0  0  0
   -0.7885    6.1511    0.4345 H   0  0  0  0  0  0  0  0  0  0  0  0
  1  8  2  0  0  0  0
  2 25  2  0  0  0  0
  3  4  1  0  0  0  0
  3 46  1  0  0  0  0
  4 25  1  0  0  0  0
  4 45  1  0  0  0  0
  5  6  1  0  0  0  0
  5  7  1  0  0  0  0
  5 26  1  0  0  0  0
  5 27  1  0  0  0  0
  6  8  1  0  0  0  0
  6 28  1  0  0  0  0
  6 29  1  0  0  0  0
  7 16  1  0  0  0  0
  7 30  1  0  0  0  0
  7 31  1  0  0  0  0
  8  9  1  0  0  0  0
  9 11  2  0  0  0  0
  9 12  1  0  0  0  0
 10 13  2  0  0  0  0
 10 14  1  0  0  0  0
 10 15  1  0  0  0  0
 11 13  1  0  0  0  0
 11 32  1  0  0  0  0
 12 14  2  0  0  0  0
 12 33  1  0  0  0  0
 13 34  1  0  0  0  0
 14 35  1  0  0  0  0
 15 17  2  0  0  0  0
 15 18  1  0  0  0  0
 16 19  2  0  0  0  0
 16 36  1  0  0  0  0
 17 20  1  0  0  0  0
 17 37  1  0  0  0  0
 18 21  2  0  0  0  0
 18 38  1  0  0  0  0
 19 23  1  0  0  0  0
 19 39  1  0  0  0  0
 20 22  2  0  0  0  0
 20 40  1  0  0  0  0
 21 22  1  0  0  0  0
 21 41  1  0  0  0  0
 22 42  1  0  0  0  0
 23 24  2  0  0  0  0
 23 43  1  0  0  0  0
 24 25  1  0  0  0  0
 24 44  1  0  0  0  0
M  END
> <PUBCHEM_COMPOUND_CID>
4147

> <PUBCHEM_CONFORMER_RMSD>
1

> <PUBCHEM_CONFORMER_DIVERSEORDER>
1
3
79
107
10
16
17
6
95
39
34
60
43
93
42
56
71
81
70
58
2
51
7
48
91
35
44
100
19
59
108
5
104
87
66
25
96
82
92
78
99
40
28
106
47
12
77
15
80
45
27
67
74
69
102
76
62
54
38
33
24
75
61
36
32
55
68
9
52
86
83
90
103
37
14
31
46
94
50
26
49
85
20
72
88
8
65
63
29
57
89
98
18
84
64
21
53
41
30
23
22
105
97
11
4
13
73
101

> <PUBCHEM_MMFF94_PARTIAL_CHARGES>
37
1 -0.57
11 -0.15
12 -0.15
13 -0.15
14 -0.15
16 -0.29
17 -0.15
18 -0.15
19 -0.15
2 -0.57
20 -0.15
21 -0.15
22 -0.15
23 -0.15
24 -0.14
25 0.62
3 -0.44
32 0.15
33 0.15
34 0.15
35 0.15
36 0.15
37 0.15
38 0.15
39 0.15
4 -0.39
40 0.15
41 0.15
42 0.15
43 0.15
44 0.15
45 0.37
46 0.4
6 0.06
7 0.14
8 0.42
9 0.09

> <PUBCHEM_EFFECTIVE_ROTOR_COUNT>
9

> <PUBCHEM_PHARMACOPHORE_FEATURES>
6
1 1 acceptor
1 2 acceptor
1 4 donor
4 5 6 7 16 hydrophobe
6 15 17 18 20 21 22 rings
6 9 10 11 12 13 14 rings

> <PUBCHEM_HEAVY_ATOM_COUNT>
25

> <PUBCHEM_ATOM_DEF_STEREO_COUNT>
0

> <PUBCHEM_ATOM_UDEF_STEREO_COUNT>
0

> <PUBCHEM_BOND_DEF_STEREO_COUNT>
0

> <PUBCHEM_BOND_UDEF_STEREO_COUNT>
2

> <PUBCHEM_ISOTOPIC_ATOM_COUNT>
0

> <PUBCHEM_COMPONENT_COUNT>
1

> <PUBCHEM_CACTVS_TAUTO_COUNT>
6

> <PUBCHEM_CONFORMER_ID>
0000103300000001

> <PUBCHEM_MMFF94_ENERGY>
60.133

> <PUBCHEM_FEATURE_SELFOVERLAP>
30.446

> <PUBCHEM_SHAPE_FINGERPRINT>
100830 39 18410293606283236836
10087517 78 18265337209822339592
10937287 8 18122626329823206941
11059048 146 17902785602589155233
12107183 9 18054238901757937994
12596602 18 17273985635803015234
12788726 201 18341624663441533970
13561361 72 18191600644365623888
13761468 95 18042950129231767320
13965767 371 17556575779312584663
14028597 1 17701565943096377632
14251764 75 17973435800553666785
14363568 33 17259327883020539881
14394314 77 18266731377856310465
151778 21 17472408228937237985
15322535 138 18195810897220099509
15400415 2 18050004699475306896
155225 5 18410011065812330096
15961568 22 18191299373540955414
16992787 43 18338524157760392221
18336668 15 17915181209012169957
19611394 137 17912915090237534315
19930381 70 16321187084159552539
20771845 165 18115571679000540126
21033650 10 18198036185023248814
21859007 373 18259708874899542416
3493558 16 18341043022154157932
373842 8 17762062043087276160
469060 322 18194661719318604523
5283173 99 18335414695299263382
550186 7 18260819402242811670
6201320 215 18334301934146117096
7808743 9 18408887368927531915
9980921 221 18268125657732238652

> <PUBCHEM_SHAPE_MULTIPOLES>
491.9
11.14
6.86
1.03
14.04
11.37
0
1.63
-0.68
-9.84
0
-0.2
-0.47
-0.2

> <PUBCHEM_SHAPE_SELFOVERLAP>
1034.054

> <PUBCHEM_SHAPE_VOLUME>
275.5

> <PUBCHEM_COORDINATE_TYPE>
2
5
10

$$$$

