4191
  -OEChem-06251223562D

 74 76  0     1  0  0  0  0  0999 V2000
    6.0010   -2.8455    0.0000 O   0  0  0  0  0  0  0  0  0  0  0  0
    7.7331    0.1545    0.0000 O   0  0  0  0  0  0  0  0  0  0  0  0
    5.1350   -1.3455    0.0000 O   0  0  0  0  0  0  0  0  0  0  0  0
    6.0010   -0.8455    0.0000 O   0  0  0  0  0  0  0  0  0  0  0  0
    9.2331    1.0205    0.0000 O   0  0  0  0  0  0  0  0  0  0  0  0
    4.2690   -3.8455    0.0000 O   0  0  0  0  0  0  0  0  0  0  0  0
    2.9030   -0.4795    0.0000 O   0  0  0  0  0  0  0  0  0  0  0  0
    9.7331    3.6186    0.0000 O   0  0  0  0  0  0  0  0  0  0  0  0
    7.7331   -3.8455    0.0000 N   0  0  0  0  0  0  0  0  0  0  0  0
    9.5991   -1.3455    0.0000 N   0  0  0  0  0  0  0  0  0  0  0  0
    2.5369   -2.8455    0.0000 N   0  0  0  0  0  0  0  0  0  0  0  0
    6.7331    1.8865    0.0000 N   0  0  0  0  0  0  0  0  0  0  0  0
   11.2331    1.0205    0.0000 N   0  0  0  0  0  0  0  0  0  0  0  0
    6.8671   -2.3455    0.0000 C   0  0  3  0  0  0  0  0  0  0  0  0
    7.7331   -0.8455    0.0000 C   0  0  3  0  0  0  0  0  0  0  0  0
    6.8671   -1.3455    0.0000 C   0  0  3  0  0  0  0  0  0  0  0  0
    7.7331   -2.8455    0.0000 C   0  0  3  0  0  0  0  0  0  0  0  0
    8.5991   -1.3455    0.0000 C   0  0  3  0  0  0  0  0  0  0  0  0
    8.5991   -2.3455    0.0000 C   0  0  0  0  0  0  0  0  0  0  0  0
    5.1350   -2.3455    0.0000 C   0  0  3  0  0  0  0  0  0  0  0  0
    3.4030   -2.3455    0.0000 C   0  0  3  0  0  0  0  0  0  0  0  0
    4.2690   -2.8455    0.0000 C   0  0  3  0  0  0  0  0  0  0  0  0
    3.4030   -1.3455    0.0000 C   0  0  3  0  0  0  0  0  0  0  0  0
    8.2331    1.0205    0.0000 C   0  0  3  0  0  0  0  0  0  0  0  0
    7.7331    1.8865    0.0000 C   0  0  3  0  0  0  0  0  0  0  0  0
    4.2690   -0.8455    0.0000 C   0  0  0  0  0  0  0  0  0  0  0  0
    8.2331    2.7526    0.0000 C   0  0  0  0  0  0  0  0  0  0  0  0
    9.7331    1.8865    0.0000 C   0  0  3  0  0  0  0  0  0  0  0  0
    9.2331    2.7526    0.0000 C   0  0  3  0  0  0  0  0  0  0  0  0
    2.4030   -1.3455    0.0000 C   0  0  0  0  0  0  0  0  0  0  0  0
   10.7331    1.8865    0.0000 C   0  0  0  0  0  0  0  0  0  0  0  0
    2.5369   -3.8455    0.0000 C   0  0  0  0  0  0  0  0  0  0  0  0
   12.2331    1.0205    0.0000 C   0  0  0  0  0  0  0  0  0  0  0  0
    6.3301   -2.0355    0.0000 H   0  0  0  0  0  0  0  0  0  0  0  0
    8.2700   -0.5355    0.0000 H   0  0  0  0  0  0  0  0  0  0  0  0
    6.3301   -1.6555    0.0000 H   0  0  0  0  0  0  0  0  0  0  0  0
    8.2700   -3.1555    0.0000 H   0  0  0  0  0  0  0  0  0  0  0  0
    8.7596   -0.7466    0.0000 H   0  0  0  0  0  0  0  0  0  0  0  0
    8.8112   -2.9281    0.0000 H   0  0  0  0  0  0  0  0  0  0  0  0
    9.2097   -2.2379    0.0000 H   0  0  0  0  0  0  0  0  0  0  0  0
    5.1350   -2.9655    0.0000 H   0  0  0  0  0  0  0  0  0  0  0  0
    3.4030   -2.9655    0.0000 H   0  0  0  0  0  0  0  0  0  0  0  0
    4.8059   -3.1555    0.0000 H   0  0  0  0  0  0  0  0  0  0  0  0
    7.6131    1.0205    0.0000 H   0  0  0  0  0  0  0  0  0  0  0  0
    7.4231    1.3496    0.0000 H   0  0  0  0  0  0  0  0  0  0  0  0
    4.6675   -0.3706    0.0000 H   0  0  0  0  0  0  0  0  0  0  0  0
    3.8705   -0.3706    0.0000 H   0  0  0  0  0  0  0  0  0  0  0  0
    8.3408    3.3631    0.0000 H   0  0  0  0  0  0  0  0  0  0  0  0
    7.6505    2.9646    0.0000 H   0  0  0  0  0  0  0  0  0  0  0  0
    8.2700   -4.1555    0.0000 H   0  0  0  0  0  0  0  0  0  0  0  0
    7.1962   -4.1555    0.0000 H   0  0  0  0  0  0  0  0  0  0  0  0
    9.9091   -1.8824    0.0000 H   0  0  0  0  0  0  0  0  0  0  0  0
    9.9091   -0.8086    0.0000 H   0  0  0  0  0  0  0  0  0  0  0  0
   10.0431    1.3496    0.0000 H   0  0  0  0  0  0  0  0  0  0  0  0
    9.8531    2.7526    0.0000 H   0  0  0  0  0  0  0  0  0  0  0  0
    6.0010   -0.2255    0.0000 H   0  0  0  0  0  0  0  0  0  0  0  0
    2.4030   -0.7255    0.0000 H   0  0  0  0  0  0  0  0  0  0  0  0
    1.7830   -1.3455    0.0000 H   0  0  0  0  0  0  0  0  0  0  0  0
    2.4030   -1.9655    0.0000 H   0  0  0  0  0  0  0  0  0  0  0  0
    2.0000   -2.5355    0.0000 H   0  0  0  0  0  0  0  0  0  0  0  0
   11.3157    2.0986    0.0000 H   0  0  0  0  0  0  0  0  0  0  0  0
   10.6254    2.4971    0.0000 H   0  0  0  0  0  0  0  0  0  0  0  0
    4.8059   -4.1555    0.0000 H   0  0  0  0  0  0  0  0  0  0  0  0
    6.4231    2.4235    0.0000 H   0  0  0  0  0  0  0  0  0  0  0  0
    6.4231    1.3496    0.0000 H   0  0  0  0  0  0  0  0  0  0  0  0
    3.2130    0.0574    0.0000 H   0  0  0  0  0  0  0  0  0  0  0  0
    1.9169   -3.8455    0.0000 H   0  0  0  0  0  0  0  0  0  0  0  0
    2.5369   -4.4655    0.0000 H   0  0  0  0  0  0  0  0  0  0  0  0
    3.1569   -3.8455    0.0000 H   0  0  0  0  0  0  0  0  0  0  0  0
    9.4231    4.1555    0.0000 H   0  0  0  0  0  0  0  0  0  0  0  0
   10.9231    0.4836    0.0000 H   0  0  0  0  0  0  0  0  0  0  0  0
   12.2331    0.4005    0.0000 H   0  0  0  0  0  0  0  0  0  0  0  0
   12.8531    1.0205    0.0000 H   0  0  0  0  0  0  0  0  0  0  0  0
   12.2331    1.6405    0.0000 H   0  0  0  0  0  0  0  0  0  0  0  0
  1 14  1  0  0  0  0
  1 20  1  0  0  0  0
  2 15  1  0  0  0  0
  2 24  1  0  0  0  0
  3 20  1  0  0  0  0
  3 26  1  0  0  0  0
  4 16  1  0  0  0  0
  4 56  1  0  0  0  0
  5 24  1  0  0  0  0
  5 28  1  0  0  0  0
  6 22  1  0  0  0  0
  6 63  1  0  0  0  0
  7 23  1  0  0  0  0
  7 66  1  0  0  0  0
  8 29  1  0  0  0  0
  8 70  1  0  0  0  0
  9 17  1  0  0  0  0
  9 50  1  0  0  0  0
  9 51  1  0  0  0  0
 10 18  1  0  0  0  0
 10 52  1  0  0  0  0
 10 53  1  0  0  0  0
 11 21  1  0  0  0  0
 11 32  1  0  0  0  0
 11 60  1  0  0  0  0
 12 25  1  0  0  0  0
 12 64  1  0  0  0  0
 12 65  1  0  0  0  0
 13 31  1  0  0  0  0
 13 33  1  0  0  0  0
 13 71  1  0  0  0  0
 14 16  1  0  0  0  0
 14 17  1  0  0  0  0
 14 34  1  0  0  0  0
 15 16  1  0  0  0  0
 15 18  1  0  0  0  0
 15 35  1  0  0  0  0
 16 36  1  0  0  0  0
 17 19  1  0  0  0  0
 17 37  1  0  0  0  0
 18 19  1  0  0  0  0
 18 38  1  0  0  0  0
 19 39  1  0  0  0  0
 19 40  1  0  0  0  0
 20 22  1  0  0  0  0
 20 41  1  0  0  0  0
 21 22  1  0  0  0  0
 21 23  1  0  0  0  0
 21 42  1  0  0  0  0
 22 43  1  0  0  0  0
 23 26  1  0  0  0  0
 23 30  1  0  0  0  0
 24 25  1  0  0  0  0
 24 44  1  0  0  0  0
 25 27  1  0  0  0  0
 25 45  1  0  0  0  0
 26 46  1  0  0  0  0
 26 47  1  0  0  0  0
 27 29  1  0  0  0  0
 27 48  1  0  0  0  0
 27 49  1  0  0  0  0
 28 29  1  0  0  0  0
 28 31  1  0  0  0  0
 28 54  1  0  0  0  0
 29 55  1  0  0  0  0
 30 57  1  0  0  0  0
 30 58  1  0  0  0  0
 30 59  1  0  0  0  0
 31 61  1  0  0  0  0
 31 62  1  0  0  0  0
 32 67  1  0  0  0  0
 32 68  1  0  0  0  0
 32 69  1  0  0  0  0
 33 72  1  0  0  0  0
 33 73  1  0  0  0  0
 33 74  1  0  0  0  0
M  END
> <PUBCHEM_COMPOUND_CID>
4191

> <PUBCHEM_COMPOUND_CANONICALIZED>
1

> <PUBCHEM_CACTVS_COMPLEXITY>
637

> <PUBCHEM_CACTVS_HBOND_ACCEPTOR>
13

> <PUBCHEM_CACTVS_HBOND_DONOR>
9

> <PUBCHEM_CACTVS_ROTATABLE_BOND>
7

> <PUBCHEM_CACTVS_SUBSKEYS>
AAADcfB7vAAAAAAAAAAAAAAAAAAAAAAAAAA0SIAAAAAAAAAAAAAAHgAQCAAADHzxgAcCCALABgAAAAAAAAAAAAAAAAAAAIAIAAATEAIAwAAnQAAHEAAXAAHwcA0MAAAAAAAAAAAAgAAUCACgAAAAAAAAAA==

> <PUBCHEM_IUPAC_OPENEYE_NAME>
2-[4,6-diamino-3-[3-amino-5-hydroxy-6-(methylaminomethyl)tetrahydropyran-2-yl]oxy-2-hydroxy-cyclohexoxy]-5-methyl-4-(methylamino)tetrahydropyran-3,5-diol

> <PUBCHEM_IUPAC_CAS_NAME>
2-[4,6-diamino-3-[[3-amino-5-hydroxy-6-(methylaminomethyl)-2-oxanyl]oxy]-2-hydroxycyclohexyl]oxy-5-methyl-4-(methylamino)oxane-3,5-diol

> <PUBCHEM_IUPAC_NAME>
2-[4,6-diamino-3-[3-amino-5-hydroxy-6-(methylaminomethyl)oxan-2-yl]oxy-2-hydroxycyclohexyl]oxy-5-methyl-4-(methylamino)oxane-3,5-diol

> <PUBCHEM_IUPAC_SYSTEMATIC_NAME>
2-[4,6-bis(azanyl)-3-[3-azanyl-6-(methylaminomethyl)-5-oxidanyl-oxan-2-yl]oxy-2-oxidanyl-cyclohexyl]oxy-5-methyl-4-(methylamino)oxane-3,5-diol

> <PUBCHEM_IUPAC_TRADITIONAL_NAME>
2-[4,6-diamino-3-[3-amino-5-hydroxy-6-(methylaminomethyl)tetrahydropyran-2-yl]oxy-2-hydroxy-cyclohexoxy]-5-methyl-4-(methylamino)tetrahydropyran-3,5-diol

> <PUBCHEM_IUPAC_INCHI>
InChI=1S/C20H41N5O8/c1-20(29)7-30-19(14(28)17(20)25-3)33-16-9(22)4-8(21)15(13(16)27)32-18-10(23)5-11(26)12(31-18)6-24-2/h8-19,24-29H,4-7,21-23H2,1-3H3

> <PUBCHEM_IUPAC_INCHIKEY>
QHFFTXFBPCAEMW-UHFFFAOYSA-N

> <PUBCHEM_XLOGP3_AA>
-5

> <PUBCHEM_EXACT_MASS>
479.295513

> <PUBCHEM_MOLECULAR_FORMULA>
C20H41N5O8

> <PUBCHEM_MOLECULAR_WEIGHT>
479.56824

> <PUBCHEM_OPENEYE_CAN_SMILES>
CC1(COC(C(C1NC)O)OC2C(CC(C(C2O)OC3C(CC(C(O3)CNC)O)N)N)N)O

> <PUBCHEM_OPENEYE_ISO_SMILES>
CC1(COC(C(C1NC)O)OC2C(CC(C(C2O)OC3C(CC(C(O3)CNC)O)N)N)N)O

> <PUBCHEM_CACTVS_TPSA>
220

> <PUBCHEM_MONOISOTOPIC_WEIGHT>
479.295513

> <PUBCHEM_TOTAL_CHARGE>
0

> <PUBCHEM_HEAVY_ATOM_COUNT>
33

> <PUBCHEM_ATOM_DEF_STEREO_COUNT>
0

> <PUBCHEM_ATOM_UDEF_STEREO_COUNT>
13

> <PUBCHEM_BOND_DEF_STEREO_COUNT>
0

> <PUBCHEM_BOND_UDEF_STEREO_COUNT>
0

> <PUBCHEM_ISOTOPIC_ATOM_COUNT>
0

> <PUBCHEM_COMPONENT_COUNT>
1

> <PUBCHEM_CACTVS_TAUTO_COUNT>
1

> <PUBCHEM_COORDINATE_TYPE>
1
5
255

> <PUBCHEM_BONDANNOTATIONS>
14  1  3
20  1  3
18  10  3
21  11  3
25  12  3
15  2  3
24  2  3
28  31  3
16  4  3
22  6  3
23  7  3
29  8  3
17  9  3

$$$$

