12446
  -OEChem-06261206563D

 40 40  0     0  0  0  0  0  0999 V2000
    2.7233    1.0976    0.3188 O   0  0  0  0  0  0  0  0  0  0  0  0
   -2.7232    1.0976    0.3185 O   0  0  0  0  0  0  0  0  0  0  0  0
    3.2508   -0.2305   -1.5026 O   0  0  0  0  0  0  0  0  0  0  0  0
   -3.2497   -0.2297   -1.5038 O   0  0  0  0  0  0  0  0  0  0  0  0
   -0.0006   -2.1712    0.9642 N   0  0  0  0  0  0  0  0  0  0  0  0
    0.0007   -0.0095   -0.8667 C   0  0  0  0  0  0  0  0  0  0  0  0
    1.2726   -0.5868   -0.2466 C   0  0  0  0  0  0  0  0  0  0  0  0
   -1.2717   -0.5860   -0.2476 C   0  0  0  0  0  0  0  0  0  0  0  0
    1.2262   -1.6389    0.6015 C   0  0  0  0  0  0  0  0  0  0  0  0
   -1.2266   -1.6381    0.6005 C   0  0  0  0  0  0  0  0  0  0  0  0
    0.0012   -0.2620   -2.3823 C   0  0  0  0  0  0  0  0  0  0  0  0
    2.5349    0.0950   -0.5730 C   0  0  0  0  0  0  0  0  0  0  0  0
   -2.5338    0.0958   -0.5742 C   0  0  0  0  0  0  0  0  0  0  0  0
    2.4199   -2.3130    1.2219 C   0  0  0  0  0  0  0  0  0  0  0  0
   -2.4220   -2.3107    1.2193 C   0  0  0  0  0  0  0  0  0  0  0  0
    3.9195    1.8609    0.1309 C   0  0  0  0  0  0  0  0  0  0  0  0
   -3.9201    1.8599    0.1312 C   0  0  0  0  0  0  0  0  0  0  0  0
    3.9909    2.9357    1.1946 C   0  0  0  0  0  0  0  0  0  0  0  0
   -3.9922    2.9338    1.1957 C   0  0  0  0  0  0  0  0  0  0  0  0
    0.0009    1.0743   -0.6875 H   0  0  0  0  0  0  0  0  0  0  0  0
   -0.8776    0.1834   -2.8612 H   0  0  0  0  0  0  0  0  0  0  0  0
    0.8803    0.1833   -2.8606 H   0  0  0  0  0  0  0  0  0  0  0  0
    0.0012   -1.3341   -2.6119 H   0  0  0  0  0  0  0  0  0  0  0  0
   -0.0011   -2.9591    1.6021 H   0  0  0  0  0  0  0  0  0  0  0  0
    2.3727   -2.2351    2.3134 H   0  0  0  0  0  0  0  0  0  0  0  0
    3.3707   -1.8785    0.9006 H   0  0  0  0  0  0  0  0  0  0  0  0
    2.4368   -3.3744    0.9520 H   0  0  0  0  0  0  0  0  0  0  0  0
   -3.3722   -1.8756    0.8968 H   0  0  0  0  0  0  0  0  0  0  0  0
   -2.3762   -2.2325    2.3108 H   0  0  0  0  0  0  0  0  0  0  0  0
   -2.4395   -3.3722    0.9500 H   0  0  0  0  0  0  0  0  0  0  0  0
    4.7903    1.2008    0.2125 H   0  0  0  0  0  0  0  0  0  0  0  0
    3.9055    2.3232   -0.8624 H   0  0  0  0  0  0  0  0  0  0  0  0
   -3.9066    2.3231   -0.8618 H   0  0  0  0  0  0  0  0  0  0  0  0
   -4.7904    1.1990    0.2123 H   0  0  0  0  0  0  0  0  0  0  0  0
    4.8953    3.5396    1.0804 H   0  0  0  0  0  0  0  0  0  0  0  0
    3.1170    3.5930    1.1372 H   0  0  0  0  0  0  0  0  0  0  0  0
    3.9874    2.4891    2.1944 H   0  0  0  0  0  0  0  0  0  0  0  0
   -4.8972    3.5371    1.0821 H   0  0  0  0  0  0  0  0  0  0  0  0
   -3.9884    2.4864    2.1951 H   0  0  0  0  0  0  0  0  0  0  0  0
   -3.1188    3.5919    1.1388 H   0  0  0  0  0  0  0  0  0  0  0  0
  1 12  1  0  0  0  0
  1 16  1  0  0  0  0
  2 13  1  0  0  0  0
  2 17  1  0  0  0  0
  3 12  2  0  0  0  0
  4 13  2  0  0  0  0
  5  9  1  0  0  0  0
  5 10  1  0  0  0  0
  5 24  1  0  0  0  0
  6  7  1  0  0  0  0
  6  8  1  0  0  0  0
  6 11  1  0  0  0  0
  6 20  1  0  0  0  0
  7  9  2  0  0  0  0
  7 12  1  0  0  0  0
  8 10  2  0  0  0  0
  8 13  1  0  0  0  0
  9 14  1  0  0  0  0
 10 15  1  0  0  0  0
 11 21  1  0  0  0  0
 11 22  1  0  0  0  0
 11 23  1  0  0  0  0
 14 25  1  0  0  0  0
 14 26  1  0  0  0  0
 14 27  1  0  0  0  0
 15 28  1  0  0  0  0
 15 29  1  0  0  0  0
 15 30  1  0  0  0  0
 16 18  1  0  0  0  0
 16 31  1  0  0  0  0
 16 32  1  0  0  0  0
 17 19  1  0  0  0  0
 17 33  1  0  0  0  0
 17 34  1  0  0  0  0
 18 35  1  0  0  0  0
 18 36  1  0  0  0  0
 18 37  1  0  0  0  0
 19 38  1  0  0  0  0
 19 39  1  0  0  0  0
 19 40  1  0  0  0  0
M  END
> <PUBCHEM_COMPOUND_CID>
12446

> <PUBCHEM_CONFORMER_RMSD>
0.8

> <PUBCHEM_CONFORMER_DIVERSEORDER>
1
23
21
27
2
19
15
6
4
28
11
24
10
29
20
26
12
16
9
13
25
18
7
14
22
8
17
5
3

> <PUBCHEM_MMFF94_PARTIAL_CHARGES>
17
1 -0.43
10 -0.04
12 0.71
13 0.71
14 0.14
15 0.14
16 0.28
17 0.28
2 -0.43
24 0.4
3 -0.57
4 -0.57
5 -0.6
6 0.28
7 -0.12
8 -0.12
9 -0.04

> <PUBCHEM_EFFECTIVE_ROTOR_COUNT>
6.4

> <PUBCHEM_PHARMACOPHORE_FEATURES>
5
1 3 acceptor
1 4 acceptor
1 5 cation
1 5 donor
6 5 6 7 8 9 10 rings

> <PUBCHEM_HEAVY_ATOM_COUNT>
19

> <PUBCHEM_ATOM_DEF_STEREO_COUNT>
0

> <PUBCHEM_ATOM_UDEF_STEREO_COUNT>
0

> <PUBCHEM_BOND_DEF_STEREO_COUNT>
0

> <PUBCHEM_BOND_UDEF_STEREO_COUNT>
0

> <PUBCHEM_ISOTOPIC_ATOM_COUNT>
0

> <PUBCHEM_COMPONENT_COUNT>
1

> <PUBCHEM_CACTVS_TAUTO_COUNT>
2

> <PUBCHEM_CONFORMER_ID>
0000309E00000001

> <PUBCHEM_MMFF94_ENERGY>
38.8987

> <PUBCHEM_FEATURE_SELFOVERLAP>
25.371

> <PUBCHEM_SHAPE_FINGERPRINT>
10968037 57 10087650324743631633
11132069 177 17489318438356523782
11221954 11 18187076243699760017
12202030 40 11240003312870995621
12390115 104 18057029234577677836
12633257 1 18059031573915767144
12788726 201 17970087568751229159
12824470 246 11599716294588521293
12930653 34 18341891827486864034
13140716 1 18060140984926871218
13380535 21 17988913500751047362
13464514 151 18335416885552944064
13965767 371 17774171221903764616
14178342 30 17988358174332531890
14787075 74 17834681491565838303
14955137 171 16484966307869942094
15295992 7 18339350967768113384
16945 1 17775566437692452119
1741750 31 18412543210629902395
17980427 23 17973190549262110474
18186145 218 18342457092374553173
20510252 161 18054783983966334346
20671657 1 18270687583374044986
20775530 9 10879992458235561337
21041028 32 16901028379721132891
21501502 16 18131350821155966811
21864079 5 18261673770070030737
22182937 141 18409721838208225209
2334 1 17846777382013047826
23419403 2 16524978343411764619
23559900 14 18271232856317749078
2748010 2 17847058891365353418
276578 36 17986936630483672959
474 4 18338806722629543449
5207 123 9511458893070804745
5895379 119 17316477615393723536
633830 44 18335138725774073557
81228 2 17630875020041384211
84936 182 18335710450614699472
90316 7 16485872223968176412
9981440 41 18265349329924748026

> <PUBCHEM_SHAPE_MULTIPOLES>
362.55
7.35
3.22
1.61
0
1.36
0.69
7.16
-1.56
0
-2.28
0
-0.21
0

> <PUBCHEM_SHAPE_SELFOVERLAP>
732.465

> <PUBCHEM_SHAPE_VOLUME>
213

> <PUBCHEM_COORDINATE_TYPE>
2
5
10

$$$$

