8214
  -OEChem-06261202392D

 67 66  0     0  0  0  0  0  0999 V2000
   20.1865   -1.0600    0.0000 O   0  0  0  0  0  0  0  0  0  0  0  0
   21.0526    0.4400    0.0000 N   0  0  0  0  0  0  0  0  0  0  0  0
   14.9904   -0.0600    0.0000 C   0  0  0  0  0  0  0  0  0  0  0  0
   14.1244    0.4400    0.0000 C   0  0  0  0  0  0  0  0  0  0  0  0
   15.8564    0.4400    0.0000 C   0  0  0  0  0  0  0  0  0  0  0  0
   13.2583   -0.0600    0.0000 C   0  0  0  0  0  0  0  0  0  0  0  0
   16.7224   -0.0600    0.0000 C   0  0  0  0  0  0  0  0  0  0  0  0
   12.3923    0.4400    0.0000 C   0  0  0  0  0  0  0  0  0  0  0  0
   17.5885    0.4400    0.0000 C   0  0  0  0  0  0  0  0  0  0  0  0
   11.5263   -0.0600    0.0000 C   0  0  0  0  0  0  0  0  0  0  0  0
    5.4641    0.4400    0.0000 C   0  0  0  0  0  0  0  0  0  0  0  0
    6.3301   -0.0600    0.0000 C   0  0  0  0  0  0  0  0  0  0  0  0
   10.6603    0.4400    0.0000 C   0  0  0  0  0  0  0  0  0  0  0  0
   18.4545   -0.0600    0.0000 C   0  0  0  0  0  0  0  0  0  0  0  0
    4.5981   -0.0600    0.0000 C   0  0  0  0  0  0  0  0  0  0  0  0
    7.1962    0.4400    0.0000 C   0  0  0  0  0  0  0  0  0  0  0  0
    8.0622   -0.0600    0.0000 C   0  0  0  0  0  0  0  0  0  0  0  0
    3.7320    0.4400    0.0000 C   0  0  0  0  0  0  0  0  0  0  0  0
    9.7942   -0.0600    0.0000 C   0  0  0  0  0  0  0  0  0  0  0  0
   19.3205    0.4400    0.0000 C   0  0  0  0  0  0  0  0  0  0  0  0
    8.9282    0.4400    0.0000 C   0  0  0  0  0  0  0  0  0  0  0  0
    2.8660   -0.0600    0.0000 C   0  0  0  0  0  0  0  0  0  0  0  0
    2.0000    0.4400    0.0000 C   0  0  0  0  0  0  0  0  0  0  0  0
   20.1865   -0.0600    0.0000 C   0  0  0  0  0  0  0  0  0  0  0  0
   14.5919   -0.5349    0.0000 H   0  0  0  0  0  0  0  0  0  0  0  0
   15.3889   -0.5349    0.0000 H   0  0  0  0  0  0  0  0  0  0  0  0
   14.5229    0.9149    0.0000 H   0  0  0  0  0  0  0  0  0  0  0  0
   13.7258    0.9149    0.0000 H   0  0  0  0  0  0  0  0  0  0  0  0
   16.2549    0.9149    0.0000 H   0  0  0  0  0  0  0  0  0  0  0  0
   15.4579    0.9149    0.0000 H   0  0  0  0  0  0  0  0  0  0  0  0
   12.8598   -0.5349    0.0000 H   0  0  0  0  0  0  0  0  0  0  0  0
   13.6569   -0.5349    0.0000 H   0  0  0  0  0  0  0  0  0  0  0  0
   16.3239   -0.5349    0.0000 H   0  0  0  0  0  0  0  0  0  0  0  0
   17.1210   -0.5349    0.0000 H   0  0  0  0  0  0  0  0  0  0  0  0
   12.7908    0.9149    0.0000 H   0  0  0  0  0  0  0  0  0  0  0  0
   11.9938    0.9149    0.0000 H   0  0  0  0  0  0  0  0  0  0  0  0
   17.9870    0.9149    0.0000 H   0  0  0  0  0  0  0  0  0  0  0  0
   17.1899    0.9149    0.0000 H   0  0  0  0  0  0  0  0  0  0  0  0
   11.1278   -0.5349    0.0000 H   0  0  0  0  0  0  0  0  0  0  0  0
   11.9248   -0.5349    0.0000 H   0  0  0  0  0  0  0  0  0  0  0  0
    5.8626    0.9149    0.0000 H   0  0  0  0  0  0  0  0  0  0  0  0
    5.0656    0.9149    0.0000 H   0  0  0  0  0  0  0  0  0  0  0  0
    5.9316   -0.5349    0.0000 H   0  0  0  0  0  0  0  0  0  0  0  0
    6.7287   -0.5349    0.0000 H   0  0  0  0  0  0  0  0  0  0  0  0
   11.0588    0.9149    0.0000 H   0  0  0  0  0  0  0  0  0  0  0  0
   10.2617    0.9149    0.0000 H   0  0  0  0  0  0  0  0  0  0  0  0
   18.0560   -0.5349    0.0000 H   0  0  0  0  0  0  0  0  0  0  0  0
   18.8530   -0.5349    0.0000 H   0  0  0  0  0  0  0  0  0  0  0  0
    4.1996   -0.5349    0.0000 H   0  0  0  0  0  0  0  0  0  0  0  0
    4.9966   -0.5349    0.0000 H   0  0  0  0  0  0  0  0  0  0  0  0
    7.5947    0.9149    0.0000 H   0  0  0  0  0  0  0  0  0  0  0  0
    6.7976    0.9149    0.0000 H   0  0  0  0  0  0  0  0  0  0  0  0
    7.6636   -0.5349    0.0000 H   0  0  0  0  0  0  0  0  0  0  0  0
    8.4607   -0.5349    0.0000 H   0  0  0  0  0  0  0  0  0  0  0  0
    4.1306    0.9149    0.0000 H   0  0  0  0  0  0  0  0  0  0  0  0
    3.3335    0.9149    0.0000 H   0  0  0  0  0  0  0  0  0  0  0  0
    9.7942   -0.6800    0.0000 H   0  0  0  0  0  0  0  0  0  0  0  0
   19.7190    0.9149    0.0000 H   0  0  0  0  0  0  0  0  0  0  0  0
   18.9220    0.9149    0.0000 H   0  0  0  0  0  0  0  0  0  0  0  0
    8.9282    1.0600    0.0000 H   0  0  0  0  0  0  0  0  0  0  0  0
    2.4675   -0.5349    0.0000 H   0  0  0  0  0  0  0  0  0  0  0  0
    3.2646   -0.5349    0.0000 H   0  0  0  0  0  0  0  0  0  0  0  0
    2.3100    0.9769    0.0000 H   0  0  0  0  0  0  0  0  0  0  0  0
    1.4631    0.7500    0.0000 H   0  0  0  0  0  0  0  0  0  0  0  0
    1.6900   -0.0969    0.0000 H   0  0  0  0  0  0  0  0  0  0  0  0
   21.5895    0.1300    0.0000 H   0  0  0  0  0  0  0  0  0  0  0  0
   21.0526    1.0600    0.0000 H   0  0  0  0  0  0  0  0  0  0  0  0
  1 24  2  0  0  0  0
  2 24  1  0  0  0  0
  2 66  1  0  0  0  0
  2 67  1  0  0  0  0
  3  4  1  0  0  0  0
  3  5  1  0  0  0  0
  3 25  1  0  0  0  0
  3 26  1  0  0  0  0
  4  6  1  0  0  0  0
  4 27  1  0  0  0  0
  4 28  1  0  0  0  0
  5  7  1  0  0  0  0
  5 29  1  0  0  0  0
  5 30  1  0  0  0  0
  6  8  1  0  0  0  0
  6 31  1  0  0  0  0
  6 32  1  0  0  0  0
  7  9  1  0  0  0  0
  7 33  1  0  0  0  0
  7 34  1  0  0  0  0
  8 10  1  0  0  0  0
  8 35  1  0  0  0  0
  8 36  1  0  0  0  0
  9 14  1  0  0  0  0
  9 37  1  0  0  0  0
  9 38  1  0  0  0  0
 10 13  1  0  0  0  0
 10 39  1  0  0  0  0
 10 40  1  0  0  0  0
 11 12  1  0  0  0  0
 11 15  1  0  0  0  0
 11 41  1  0  0  0  0
 11 42  1  0  0  0  0
 12 16  1  0  0  0  0
 12 43  1  0  0  0  0
 12 44  1  0  0  0  0
 13 19  1  0  0  0  0
 13 45  1  0  0  0  0
 13 46  1  0  0  0  0
 14 20  1  0  0  0  0
 14 47  1  0  0  0  0
 14 48  1  0  0  0  0
 15 18  1  0  0  0  0
 15 49  1  0  0  0  0
 15 50  1  0  0  0  0
 16 17  1  0  0  0  0
 16 51  1  0  0  0  0
 16 52  1  0  0  0  0
 17 21  1  0  0  0  0
 17 53  1  0  0  0  0
 17 54  1  0  0  0  0
 18 22  1  0  0  0  0
 18 55  1  0  0  0  0
 18 56  1  0  0  0  0
 19 21  2  3  0  0  0
 19 57  1  0  0  0  0
 20 24  1  0  0  0  0
 20 58  1  0  0  0  0
 20 59  1  0  0  0  0
 21 60  1  0  0  0  0
 22 23  1  0  0  0  0
 22 61  1  0  0  0  0
 22 62  1  0  0  0  0
 23 63  1  0  0  0  0
 23 64  1  0  0  0  0
 23 65  1  0  0  0  0
M  END
> <PUBCHEM_COMPOUND_CID>
8214

> <PUBCHEM_COMPOUND_CANONICALIZED>
1

> <PUBCHEM_CACTVS_COMPLEXITY>
286

> <PUBCHEM_CACTVS_HBOND_ACCEPTOR>
1

> <PUBCHEM_CACTVS_HBOND_DONOR>
1

> <PUBCHEM_CACTVS_ROTATABLE_BOND>
19

> <PUBCHEM_CACTVS_SUBSKEYS>
AAADcfB6IAAAAAAAAAAAAAAAAAAAAAAAAAAAAAAAAAAAAAAAAAAAHgAQAAAACACBgAACAABAAACIACFSEAAAAAAgAAAICAEAAAgAABIAgQAAAAAAkAAIAAMYiICAAAAAAAAAAAAAAAAAAAAAAAAAAAAAAA==

> <PUBCHEM_IUPAC_OPENEYE_NAME>
docos-13-enamide

> <PUBCHEM_IUPAC_CAS_NAME>
13-docosenamide

> <PUBCHEM_IUPAC_NAME>
docos-13-enamide

> <PUBCHEM_IUPAC_SYSTEMATIC_NAME>
docos-13-enamide

> <PUBCHEM_IUPAC_TRADITIONAL_NAME>
docos-13-enamide

> <PUBCHEM_IUPAC_INCHI>
InChI=1S/C22H43NO/c1-2-3-4-5-6-7-8-9-10-11-12-13-14-15-16-17-18-19-20-21-22(23)24/h9-10H,2-8,11-21H2,1H3,(H2,23,24)

> <PUBCHEM_IUPAC_INCHIKEY>
UAUDZVJPLUQNMU-UHFFFAOYSA-N

> <PUBCHEM_XLOGP3_AA>
8.8

> <PUBCHEM_EXACT_MASS>
337.334465

> <PUBCHEM_MOLECULAR_FORMULA>
C22H43NO

> <PUBCHEM_MOLECULAR_WEIGHT>
337.58292

> <PUBCHEM_OPENEYE_CAN_SMILES>
CCCCCCCCC=CCCCCCCCCCCCC(=O)N

> <PUBCHEM_OPENEYE_ISO_SMILES>
CCCCCCCCC=CCCCCCCCCCCCC(=O)N

> <PUBCHEM_CACTVS_TPSA>
43.1

> <PUBCHEM_MONOISOTOPIC_WEIGHT>
337.334465

> <PUBCHEM_TOTAL_CHARGE>
0

> <PUBCHEM_HEAVY_ATOM_COUNT>
24

> <PUBCHEM_ATOM_DEF_STEREO_COUNT>
0

> <PUBCHEM_ATOM_UDEF_STEREO_COUNT>
0

> <PUBCHEM_BOND_DEF_STEREO_COUNT>
0

> <PUBCHEM_BOND_UDEF_STEREO_COUNT>
1

> <PUBCHEM_ISOTOPIC_ATOM_COUNT>
0

> <PUBCHEM_COMPONENT_COUNT>
1

> <PUBCHEM_CACTVS_TAUTO_COUNT>
3

> <PUBCHEM_COORDINATE_TYPE>
1
5
255

> <PUBCHEM_BONDANNOTATIONS>
19  21  1

$$$$

