11073
  -OEChem-06261205183D

 43 44  0     0  0  0  0  0  0999 V2000
   -0.9503   -0.4301    0.2568 O   0  0  0  0  0  0  0  0  0  0  0  0
   -0.2245   -0.0209    2.4027 O   0  0  0  0  0  0  0  0  0  0  0  0
   -4.6008   -0.1398   -0.1848 N   0  0  0  0  0  0  0  0  0  0  0  0
    5.1355   -1.6412   -0.7716 N   0  0  0  0  0  0  0  0  0  0  0  0
   -3.2096   -0.3613   -0.5502 C   0  0  0  0  0  0  0  0  0  0  0  0
   -5.4791   -0.3489   -1.3385 C   0  0  0  0  0  0  0  0  0  0  0  0
   -4.7867    1.2097    0.3538 C   0  0  0  0  0  0  0  0  0  0  0  0
   -2.3030   -0.1867    0.6578 C   0  0  0  0  0  0  0  0  0  0  0  0
    2.1534    0.4235    0.1551 C   0  0  0  0  0  0  0  0  0  0  0  0
    1.3380   -0.5857    0.6925 C   0  0  0  0  0  0  0  0  0  0  0  0
    3.4344    0.0864   -0.3429 C   0  0  0  0  0  0  0  0  0  0  0  0
   -5.3047   -1.7433   -1.9158 C   0  0  0  0  0  0  0  0  0  0  0  0
   -6.2216    1.4288    0.8027 C   0  0  0  0  0  0  0  0  0  0  0  0
    3.8624   -1.2502   -0.2887 C   0  0  0  0  0  0  0  0  0  0  0  0
    0.0056   -0.3158    1.2259 C   0  0  0  0  0  0  0  0  0  0  0  0
    1.7794   -1.9084    0.7384 C   0  0  0  0  0  0  0  0  0  0  0  0
    1.7254    1.7601    0.1010 C   0  0  0  0  0  0  0  0  0  0  0  0
    3.0392   -2.2400    0.2487 C   0  0  0  0  0  0  0  0  0  0  0  0
    4.2498    1.0956   -0.8804 C   0  0  0  0  0  0  0  0  0  0  0  0
    2.5487    2.7499   -0.4365 C   0  0  0  0  0  0  0  0  0  0  0  0
    3.8084    2.4184   -0.9261 C   0  0  0  0  0  0  0  0  0  0  0  0
   -2.8842    0.3079   -1.3582 H   0  0  0  0  0  0  0  0  0  0  0  0
   -3.0358   -1.3818   -0.9087 H   0  0  0  0  0  0  0  0  0  0  0  0
   -6.5301   -0.2821   -1.0396 H   0  0  0  0  0  0  0  0  0  0  0  0
   -5.3082    0.3983   -2.1238 H   0  0  0  0  0  0  0  0  0  0  0  0
   -4.1967    1.3608    1.2614 H   0  0  0  0  0  0  0  0  0  0  0  0
   -4.4969    1.9848   -0.3665 H   0  0  0  0  0  0  0  0  0  0  0  0
   -2.5757   -0.8903    1.4536 H   0  0  0  0  0  0  0  0  0  0  0  0
   -2.3186    0.8339    1.0480 H   0  0  0  0  0  0  0  0  0  0  0  0
   -4.3806   -1.8455   -2.4931 H   0  0  0  0  0  0  0  0  0  0  0  0
   -5.3280   -2.5132   -1.1368 H   0  0  0  0  0  0  0  0  0  0  0  0
   -6.1269   -1.9574   -2.6081 H   0  0  0  0  0  0  0  0  0  0  0  0
   -6.9069    1.5684   -0.0390 H   0  0  0  0  0  0  0  0  0  0  0  0
   -6.5839    0.6028    1.4245 H   0  0  0  0  0  0  0  0  0  0  0  0
   -6.2823    2.3415    1.4066 H   0  0  0  0  0  0  0  0  0  0  0  0
    1.1491   -2.6906    1.1545 H   0  0  0  0  0  0  0  0  0  0  0  0
    0.7487    2.0612    0.4724 H   0  0  0  0  0  0  0  0  0  0  0  0
    3.3683   -3.2753    0.2921 H   0  0  0  0  0  0  0  0  0  0  0  0
    5.2410    0.8996   -1.2773 H   0  0  0  0  0  0  0  0  0  0  0  0
    2.2058    3.7798   -0.4727 H   0  0  0  0  0  0  0  0  0  0  0  0
    4.4483    3.1901   -1.3443 H   0  0  0  0  0  0  0  0  0  0  0  0
    5.4048   -2.6153   -0.7156 H   0  0  0  0  0  0  0  0  0  0  0  0
    5.7837   -0.9840   -1.1774 H   0  0  0  0  0  0  0  0  0  0  0  0
  1  8  1  0  0  0  0
  1 15  1  0  0  0  0
  2 15  2  0  0  0  0
  3  5  1  0  0  0  0
  3  6  1  0  0  0  0
  3  7  1  0  0  0  0
  4 14  1  0  0  0  0
  4 42  1  0  0  0  0
  4 43  1  0  0  0  0
  5  8  1  0  0  0  0
  5 22  1  0  0  0  0
  5 23  1  0  0  0  0
  6 12  1  0  0  0  0
  6 24  1  0  0  0  0
  6 25  1  0  0  0  0
  7 13  1  0  0  0  0
  7 26  1  0  0  0  0
  7 27  1  0  0  0  0
  8 28  1  0  0  0  0
  8 29  1  0  0  0  0
  9 10  1  0  0  0  0
  9 11  1  0  0  0  0
  9 17  2  0  0  0  0
 10 15  1  0  0  0  0
 10 16  2  0  0  0  0
 11 14  1  0  0  0  0
 11 19  2  0  0  0  0
 12 30  1  0  0  0  0
 12 31  1  0  0  0  0
 12 32  1  0  0  0  0
 13 33  1  0  0  0  0
 13 34  1  0  0  0  0
 13 35  1  0  0  0  0
 14 18  2  0  0  0  0
 16 18  1  0  0  0  0
 16 36  1  0  0  0  0
 17 20  1  0  0  0  0
 17 37  1  0  0  0  0
 18 38  1  0  0  0  0
 19 21  1  0  0  0  0
 19 39  1  0  0  0  0
 20 21  2  0  0  0  0
 20 40  1  0  0  0  0
 21 41  1  0  0  0  0
M  END
> <PUBCHEM_COMPOUND_CID>
11073

> <PUBCHEM_CONFORMER_RMSD>
0.8

> <PUBCHEM_CONFORMER_DIVERSEORDER>
1
91
95
31
41
43
40
12
82
15
103
25
7
60
72
37
76
4
18
100
65
42
74
107
34
22
63
57
88
50
117
113
24
5
106
98
23
116
38
104
62
35
28
2
55
10
66
84
13
99
47
89
53
105
96
14
48
56
52
29
51
108
83
26
8
81
6
33
61
49
90
54
94
87
64
44
39
59
46
92
17
16
97
21
121
30
101
77
19
78
3
120
70
69
73
85
109
9
67
58
75
80
11
68
102
123
27
115
86
112
110
79
114
119
20
32
45
36
124
111
93
118
122
71

> <PUBCHEM_MMFF94_PARTIAL_CHARGES>
25
1 -0.43
10 0.09
14 0.1
15 0.63
16 -0.15
17 -0.15
18 -0.15
19 -0.15
2 -0.57
20 -0.15
21 -0.15
3 -0.81
36 0.15
37 0.15
38 0.15
39 0.15
4 -0.9
40 0.15
41 0.15
42 0.4
43 0.4
5 0.27
6 0.27
7 0.27
8 0.28

> <PUBCHEM_EFFECTIVE_ROTOR_COUNT>
7

> <PUBCHEM_PHARMACOPHORE_FEATURES>
6
1 2 acceptor
1 3 cation
1 4 cation
1 4 donor
6 9 10 11 14 16 18 rings
6 9 11 17 19 20 21 rings

> <PUBCHEM_HEAVY_ATOM_COUNT>
21

> <PUBCHEM_ATOM_DEF_STEREO_COUNT>
0

> <PUBCHEM_ATOM_UDEF_STEREO_COUNT>
0

> <PUBCHEM_BOND_DEF_STEREO_COUNT>
0

> <PUBCHEM_BOND_UDEF_STEREO_COUNT>
0

> <PUBCHEM_ISOTOPIC_ATOM_COUNT>
0

> <PUBCHEM_COMPONENT_COUNT>
1

> <PUBCHEM_CACTVS_TAUTO_COUNT>
2

> <PUBCHEM_CONFORMER_ID>
00002B4100000001

> <PUBCHEM_MMFF94_ENERGY>
69.8313

> <PUBCHEM_FEATURE_SELFOVERLAP>
30.472

> <PUBCHEM_SHAPE_FINGERPRINT>
10498660 4 16559039285436591871
10595046 47 18262521390756180029
10670039 82 15984827098467436126
10693767 8 18261385707262763886
11471102 20 18343015588974428280
11578080 2 17750814305628601872
11796584 16 17240482541641822399
12236239 1 17968097538276868942
12403259 415 16988841683659052153
12616971 3 18335698360666661889
12730499 353 17846489344552551995
12788726 201 17749936873684837425
13167823 11 18333736793231379647
13544653 18 6555415318815643571
14528608 73 18341618075261920943
14863182 85 16660359312033057758
15081414 286 17917424302753859005
15183329 4 18334575776321701565
15250474 111 18261125058297595615
17844677 252 18341039788207184225
18186145 218 17561083601035140771
20612939 158 18413385445037107361
20645477 70 18411414007956752846
21033648 29 16630814318129617773
21503847 285 18201718491997676881
221357 26 18272373117551094621
22289505 5 18201727292095334356
23402655 69 18411696552327208916
23557571 272 14635145793452360635
23559900 14 18413107256106192954
29717793 49 17968089867396596310
3004659 81 18113901597382143022
3009799 131 18130784590880901850
3060560 45 18413390934517300518
338550 245 17675930897455043455
474 4 17917429757361908573
495365 180 18341614763932072768
5281201 14 18271812362288706997
543358 83 18411133662445307570
633830 44 18273217521570567675
7164475 11 18262516026015440896
7471813 234 18187645838457874072
8272917 22 18410848893250026734
960060 61 18260833678745647311

> <PUBCHEM_SHAPE_MULTIPOLES>
410.47
13.62
2.48
1.41
19.66
0.69
-0.13
0.79
5.08
-2.73
0.47
1.27
-0.28
-2.1

> <PUBCHEM_SHAPE_SELFOVERLAP>
861.975

> <PUBCHEM_SHAPE_VOLUME>
234

> <PUBCHEM_COORDINATE_TYPE>
2
5
10

$$$$

