8920
  -OEChem-06261203143D

 40 39  0     0  0  0  0  0  0999 V2000
    0.0014    0.2965   -0.0155 N   0  0  0  0  0  0  0  0  0  0  0  0
   -2.4478    0.3517   -0.0046 C   0  0  0  0  0  0  0  0  0  0  0  0
    2.4477    0.3528   -0.0097 C   0  0  0  0  0  0  0  0  0  0  0  0
   -3.7549   -0.4472   -0.0024 C   0  0  0  0  0  0  0  0  0  0  0  0
    3.7546   -0.4466    0.0045 C   0  0  0  0  0  0  0  0  0  0  0  0
   -1.2003   -0.5313   -0.0072 C   0  0  0  0  0  0  0  0  0  0  0  0
    1.1999   -0.5298   -0.0079 C   0  0  0  0  0  0  0  0  0  0  0  0
   -5.0062    0.4335   -0.0262 C   0  0  0  0  0  0  0  0  0  0  0  0
    5.0059    0.4339    0.0291 C   0  0  0  0  0  0  0  0  0  0  0  0
   -6.2788   -0.4113    0.0505 C   0  0  0  0  0  0  0  0  0  0  0  0
    6.2787   -0.4120   -0.0310 C   0  0  0  0  0  0  0  0  0  0  0  0
   -7.5268    0.4553   -0.0046 C   0  0  0  0  0  0  0  0  0  0  0  0
    7.5267    0.4546    0.0250 C   0  0  0  0  0  0  0  0  0  0  0  0
   -2.4353    1.0053   -0.8866 H   0  0  0  0  0  0  0  0  0  0  0  0
   -2.4301    1.0080    0.8751 H   0  0  0  0  0  0  0  0  0  0  0  0
    2.4274    1.0148    0.8657 H   0  0  0  0  0  0  0  0  0  0  0  0
    2.4386    1.0005   -0.8960 H   0  0  0  0  0  0  0  0  0  0  0  0
   -3.7780   -1.0859    0.8894 H   0  0  0  0  0  0  0  0  0  0  0  0
   -3.7690   -1.1167   -0.8714 H   0  0  0  0  0  0  0  0  0  0  0  0
    3.7837   -1.0934   -0.8812 H   0  0  0  0  0  0  0  0  0  0  0  0
    3.7623   -1.1081    0.8797 H   0  0  0  0  0  0  0  0  0  0  0  0
   -1.2196   -1.1833   -0.8889 H   0  0  0  0  0  0  0  0  0  0  0  0
   -1.2125   -1.1692    0.8846 H   0  0  0  0  0  0  0  0  0  0  0  0
    1.2141   -1.1659    0.8852 H   0  0  0  0  0  0  0  0  0  0  0  0
    1.2188   -1.1843   -0.8878 H   0  0  0  0  0  0  0  0  0  0  0  0
   -4.9790    1.1329    0.8181 H   0  0  0  0  0  0  0  0  0  0  0  0
   -5.0125    1.0338   -0.9439 H   0  0  0  0  0  0  0  0  0  0  0  0
    4.9850    1.1257   -0.8217 H   0  0  0  0  0  0  0  0  0  0  0  0
    5.0060    1.0426    0.9413 H   0  0  0  0  0  0  0  0  0  0  0  0
    0.0004    0.8976   -0.8391 H   0  0  0  0  0  0  0  0  0  0  0  0
   -6.2846   -0.9930    0.9797 H   0  0  0  0  0  0  0  0  0  0  0  0
   -6.3018   -1.1262   -0.7803 H   0  0  0  0  0  0  0  0  0  0  0  0
    6.2908   -1.0021   -0.9547 H   0  0  0  0  0  0  0  0  0  0  0  0
    6.2955   -1.1193    0.8065 H   0  0  0  0  0  0  0  0  0  0  0  0
   -7.5680    1.0250   -0.9384 H   0  0  0  0  0  0  0  0  0  0  0  0
   -8.4243   -0.1686    0.0526 H   0  0  0  0  0  0  0  0  0  0  0  0
   -7.5506    1.1622    0.8309 H   0  0  0  0  0  0  0  0  0  0  0  0
    7.5615    1.0328    0.9539 H   0  0  0  0  0  0  0  0  0  0  0  0
    8.4243   -0.1701   -0.0200 H   0  0  0  0  0  0  0  0  0  0  0  0
    7.5567    1.1538   -0.8167 H   0  0  0  0  0  0  0  0  0  0  0  0
  1  6  1  0  0  0  0
  1  7  1  0  0  0  0
  1 30  1  0  0  0  0
  2  4  1  0  0  0  0
  2  6  1  0  0  0  0
  2 14  1  0  0  0  0
  2 15  1  0  0  0  0
  3  5  1  0  0  0  0
  3  7  1  0  0  0  0
  3 16  1  0  0  0  0
  3 17  1  0  0  0  0
  4  8  1  0  0  0  0
  4 18  1  0  0  0  0
  4 19  1  0  0  0  0
  5  9  1  0  0  0  0
  5 20  1  0  0  0  0
  5 21  1  0  0  0  0
  6 22  1  0  0  0  0
  6 23  1  0  0  0  0
  7 24  1  0  0  0  0
  7 25  1  0  0  0  0
  8 10  1  0  0  0  0
  8 26  1  0  0  0  0
  8 27  1  0  0  0  0
  9 11  1  0  0  0  0
  9 28  1  0  0  0  0
  9 29  1  0  0  0  0
 10 12  1  0  0  0  0
 10 31  1  0  0  0  0
 10 32  1  0  0  0  0
 11 13  1  0  0  0  0
 11 33  1  0  0  0  0
 11 34  1  0  0  0  0
 12 35  1  0  0  0  0
 12 36  1  0  0  0  0
 12 37  1  0  0  0  0
 13 38  1  0  0  0  0
 13 39  1  0  0  0  0
 13 40  1  0  0  0  0
M  END
> <PUBCHEM_COMPOUND_CID>
8920

> <PUBCHEM_CONFORMER_RMSD>
1

> <PUBCHEM_CONFORMER_DIVERSEORDER>
1
64
75
11
43
6
31
52
79
112
55
29
36
2
92
15
111
26
9
35
74
107
13
61
60
99
8
39
19
86
106
18
90
4
62
28
5
56
23
53
85
100
67
54
7
21
103
94
63
82
66
32
57
37
50
97
81
71
3
47
25
44
101
42
48
16
88
22
17
24
83
77
109
49
113
59
10
110
69
87
68
65
14
41
84
91
80
51
95
12
105
73
96
46
38
70
93
104
40
33
102
76
108
30
114
89
72
45
58
34
27
20
98
78

> <PUBCHEM_MMFF94_PARTIAL_CHARGES>
4
1 -0.9
30 0.36
6 0.27
7 0.27

> <PUBCHEM_EFFECTIVE_ROTOR_COUNT>
10

> <PUBCHEM_PHARMACOPHORE_FEATURES>
6
1 1 cation
1 1 donor
1 12 hydrophobe
1 13 hydrophobe
4 2 4 8 10 hydrophobe
4 3 5 9 11 hydrophobe

> <PUBCHEM_HEAVY_ATOM_COUNT>
13

> <PUBCHEM_ATOM_DEF_STEREO_COUNT>
0

> <PUBCHEM_ATOM_UDEF_STEREO_COUNT>
0

> <PUBCHEM_BOND_DEF_STEREO_COUNT>
0

> <PUBCHEM_BOND_UDEF_STEREO_COUNT>
0

> <PUBCHEM_ISOTOPIC_ATOM_COUNT>
0

> <PUBCHEM_COMPONENT_COUNT>
1

> <PUBCHEM_CACTVS_TAUTO_COUNT>
1

> <PUBCHEM_CONFORMER_ID>
000022D800000001

> <PUBCHEM_MMFF94_ENERGY>
-9.2442

> <PUBCHEM_FEATURE_SELFOVERLAP>
30.447

> <PUBCHEM_SHAPE_FINGERPRINT>
10968037 39 18334576841742486127
11315181 36 17894345558635162411
12091667 2 18408603661290396611
13533116 47 17131845299770400488
14123256 10 18186519912390544872
14251764 18 18413109471876391384
14251764 46 18410856559639796067
14729087 3 18201161031376411325
17834076 25 18410855460128168295
18006028 8 17167581592094238953
20281389 69 18202004330597830676
20621476 8 18411981394442300262
20767249 213 18409448077029207308
21130983 4 18343299258500261028
22224240 67 16056881308376823170
23035841 295 10375869675724480065
23402539 116 18187369809140680247
23521765 1 18335420170664679783
33532 11 9295298231286443712
33684 2 18410576192764647786
42788 4 18410575088958065700
8209 1 18410575088958052716

> <PUBCHEM_SHAPE_MULTIPOLES>
262.55
22.98
0.8
0.61
0
0.01
0
-2.55
0.14
0
0
0
0
0.03

> <PUBCHEM_SHAPE_SELFOVERLAP>
461.918

> <PUBCHEM_SHAPE_VOLUME>
170.6

> <PUBCHEM_COORDINATE_TYPE>
2
5
10

$$$$

