5980
  -OEChem-06261201023D

 40 44  0     1  0  0  0  0  0999 V2000
    1.8309    1.0045    1.1758 O   0  0  0  0  0  0  0  0  0  0  0  0
    2.0967    2.9507   -0.6073 O   0  0  0  0  0  0  0  0  0  0  0  0
    4.0451   -0.8137    0.7378 O   0  0  0  0  0  0  0  0  0  0  0  0
   -3.3062   -0.7374    0.4473 N   0  0  1  0  0  0  0  0  0  0  0  0
   -0.5073    0.5735    0.6660 C   0  0  1  0  0  0  0  0  0  0  0  0
   -1.4701    0.6530   -0.5079 C   0  0  2  0  0  0  0  0  0  0  0  0
   -2.1088   -0.7863   -0.3947 C   0  0  2  0  0  0  0  0  0  0  0  0
    0.5687    1.6658    0.8157 C   0  0  2  0  0  0  0  0  0  0  0  0
   -1.4015    0.3301    1.9524 C   0  0  0  0  0  0  0  0  0  0  0  0
    0.4425   -0.5684    0.2754 C   0  0  0  0  0  0  0  0  0  0  0  0
   -1.2688   -1.8433   -1.1424 C   0  0  0  0  0  0  0  0  0  0  0  0
   -2.9733    0.1399    1.6352 C   0  0  0  0  0  0  0  0  0  0  0  0
    0.1569   -1.6816   -0.5596 C   0  0  0  0  0  0  0  0  0  0  0  0
    0.7402    2.5422   -0.4572 C   0  0  2  0  0  0  0  0  0  0  0  0
   -0.7974    1.0873   -1.7842 C   0  0  0  0  0  0  0  0  0  0  0  0
    1.7280   -0.2533    0.6451 C   0  0  0  0  0  0  0  0  0  0  0  0
    0.2318    1.9493   -1.7488 C   0  0  0  0  0  0  0  0  0  0  0  0
   -4.4893   -0.2923   -0.2702 C   0  0  0  0  0  0  0  0  0  0  0  0
    1.2063   -2.5457   -0.8619 C   0  0  0  0  0  0  0  0  0  0  0  0
    2.7743   -1.1069    0.3633 C   0  0  0  0  0  0  0  0  0  0  0  0
    2.5011   -2.2673   -0.3798 C   0  0  0  0  0  0  0  0  0  0  0  0
   -2.2229    1.4363   -0.3435 H   0  0  0  0  0  0  0  0  0  0  0  0
   -2.6918   -0.7024   -1.3302 H   0  0  0  0  0  0  0  0  0  0  0  0
    0.3413    2.3377    1.6521 H   0  0  0  0  0  0  0  0  0  0  0  0
   -1.3148    1.1746    2.6455 H   0  0  0  0  0  0  0  0  0  0  0  0
   -1.0505   -0.5655    2.4797 H   0  0  0  0  0  0  0  0  0  0  0  0
   -1.2311   -1.7136   -2.2310 H   0  0  0  0  0  0  0  0  0  0  0  0
   -1.6364   -2.8483   -0.9084 H   0  0  0  0  0  0  0  0  0  0  0  0
   -3.4576   -0.2835    2.5224 H   0  0  0  0  0  0  0  0  0  0  0  0
   -3.3971    1.1433    1.4940 H   0  0  0  0  0  0  0  0  0  0  0  0
    0.1624    3.4633   -0.3076 H   0  0  0  0  0  0  0  0  0  0  0  0
   -1.1854    0.7453   -2.7378 H   0  0  0  0  0  0  0  0  0  0  0  0
    0.6674    2.2919   -2.6828 H   0  0  0  0  0  0  0  0  0  0  0  0
   -4.3817    0.7022   -0.7177 H   0  0  0  0  0  0  0  0  0  0  0  0
   -5.3435   -0.2523    0.4158 H   0  0  0  0  0  0  0  0  0  0  0  0
   -4.7704   -1.0039   -1.0557 H   0  0  0  0  0  0  0  0  0  0  0  0
    1.0409   -3.4214   -1.4827 H   0  0  0  0  0  0  0  0  0  0  0  0
    3.3073   -2.9530   -0.6328 H   0  0  0  0  0  0  0  0  0  0  0  0
    2.6386    2.1485   -0.7003 H   0  0  0  0  0  0  0  0  0  0  0  0
    4.6343   -1.5259    0.4353 H   0  0  0  0  0  0  0  0  0  0  0  0
  1  8  1  0  0  0  0
  1 16  1  0  0  0  0
  2 14  1  0  0  0  0
  2 39  1  0  0  0  0
  3 20  1  0  0  0  0
  3 40  1  0  0  0  0
  4  7  1  0  0  0  0
  4 12  1  0  0  0  0
  4 18  1  0  0  0  0
  5  6  1  0  0  0  0
  5  8  1  0  0  0  0
  5  9  1  0  0  0  0
  5 10  1  0  0  0  0
  6  7  1  0  0  0  0
  6 15  1  0  0  0  0
  6 22  1  0  0  0  0
  7 11  1  0  0  0  0
  7 23  1  0  0  0  0
  8 14  1  0  0  0  0
  8 24  1  0  0  0  0
  9 12  1  0  0  0  0
  9 25  1  0  0  0  0
  9 26  1  0  0  0  0
 10 13  2  0  0  0  0
 10 16  1  0  0  0  0
 11 13  1  0  0  0  0
 11 27  1  0  0  0  0
 11 28  1  0  0  0  0
 12 29  1  0  0  0  0
 12 30  1  0  0  0  0
 13 19  1  0  0  0  0
 14 17  1  0  0  0  0
 14 31  1  0  0  0  0
 15 17  2  0  0  0  0
 15 32  1  0  0  0  0
 16 20  2  0  0  0  0
 17 33  1  0  0  0  0
 18 34  1  0  0  0  0
 18 35  1  0  0  0  0
 18 36  1  0  0  0  0
 19 21  2  0  0  0  0
 19 37  1  0  0  0  0
 20 21  1  0  0  0  0
 21 38  1  0  0  0  0
M  END
> <PUBCHEM_COMPOUND_CID>
5980

> <PUBCHEM_CONFORMER_RMSD>
0.6

> <PUBCHEM_CONFORMER_DIVERSEORDER>
1

> <PUBCHEM_MMFF94_PARTIAL_CHARGES>
26
1 -0.36
10 -0.14
11 0.14
12 0.27
13 -0.14
14 0.42
15 -0.29
16 0.08
17 -0.29
18 0.27
19 -0.15
2 -0.68
20 0.08
21 -0.15
3 -0.53
32 0.15
33 0.15
37 0.15
38 0.15
39 0.4
4 -0.81
40 0.45
5 0.14
6 0.14
7 0.27
8 0.28

> <PUBCHEM_EFFECTIVE_ROTOR_COUNT>
1.2

> <PUBCHEM_PHARMACOPHORE_FEATURES>
10
1 1 acceptor
1 2 acceptor
1 2 donor
1 3 donor
1 4 cation
5 1 5 8 10 16 rings
6 10 13 16 19 20 21 rings
6 4 5 6 7 9 12 rings
6 5 6 7 10 11 13 rings
6 5 6 8 14 15 17 rings

> <PUBCHEM_HEAVY_ATOM_COUNT>
21

> <PUBCHEM_ATOM_DEF_STEREO_COUNT>
5

> <PUBCHEM_ATOM_UDEF_STEREO_COUNT>
0

> <PUBCHEM_BOND_DEF_STEREO_COUNT>
0

> <PUBCHEM_BOND_UDEF_STEREO_COUNT>
0

> <PUBCHEM_ISOTOPIC_ATOM_COUNT>
0

> <PUBCHEM_COMPONENT_COUNT>
1

> <PUBCHEM_CACTVS_TAUTO_COUNT>
3

> <PUBCHEM_CONFORMER_ID>
0000175C00000001

> <PUBCHEM_MMFF94_ENERGY>
136.662

> <PUBCHEM_FEATURE_SELFOVERLAP>
52.205

> <PUBCHEM_SHAPE_FINGERPRINT>
10863032 1 18124313809646691791
10948715 1 17907570333537531653
12011746 2 18187644751456562679
12035758 1 18126010605291944873
12403814 3 18341904021141525714
12423570 1 10907591819326297729
12592029 89 17841135663401748845
13132413 78 17822570611541010121
13140716 1 18189347766140256314
13172582 1 18408611348438130090
13681431 1 18058426807775902621
141345 1 7754807089337908461
14142880 1 18045509865595456776
14181834 199 18341321202547885701
144361 1 17695657076575560108
14817 1 16600418013593688780
14955137 171 18190152664649607626
15375462 478 17095246955659747499
15881359 60 18119844453435051538
16945 1 18187939377612428011
17357779 13 18267601263072199837
1813 80 18268975639331991238
19868273 325 18199184168907829750
20600515 1 17488159655958490623
21330990 113 17617644897245367421
22182313 1 18196397951051900460
2334 1 17901959538522614846
23419403 2 17972912359708384873
23557571 272 18057041530894686966
2748010 2 17974015247264929406
576247 118 17986934414222402465
5845 1 10370275102653328109
7364860 26 18339920407485943749
81228 2 17626086912820775881
84936 31 18340196380498681132

> <PUBCHEM_SHAPE_MULTIPOLES>
409.58
4.88
2.76
1.58
1.87
0.8
-0.04
-2.02
-1.2
-1.89
1.16
0.53
0.48
-0.1

> <PUBCHEM_SHAPE_SELFOVERLAP>
923.449

> <PUBCHEM_SHAPE_VOLUME>
213.8

> <PUBCHEM_COORDINATE_TYPE>
2
5
10

$$$$

