51090865
  -OEChem-06241223002D

 45 47  0     0  0  0  0  0  0999 V2000
    2.0000    0.3693    0.0000 O   0  0  0  0  0  0  0  0  0  0  0  0
    5.4641   -2.6307    0.0000 O   0  0  0  0  0  0  0  0  0  0  0  0
    2.8660   -1.1307    0.0000 N   0  0  0  0  0  0  0  0  0  0  0  0
    6.3301   -1.1307    0.0000 N   0  0  0  0  0  0  0  0  0  0  0  0
    7.5622    1.4081    0.0000 N   0  0  0  0  0  0  0  0  0  0  0  0
    8.8712    0.4571    0.0000 N   0  0  0  0  0  0  0  0  0  0  0  0
    3.7320   -1.6307    0.0000 N   0  0  0  0  0  0  0  0  0  0  0  0
    7.2532    0.4571    0.0000 N   0  0  0  0  0  0  0  0  0  0  0  0
    9.1500    2.2172    0.0000 C   0  0  0  0  0  0  0  0  0  0  0  0
    4.5981   -0.1307    0.0000 C   0  0  0  0  0  0  0  0  0  0  0  0
    3.7320    0.3693    0.0000 C   0  0  0  0  0  0  0  0  0  0  0  0
    4.5981   -1.1307    0.0000 C   0  0  0  0  0  0  0  0  0  0  0  0
    8.5622    1.4081    0.0000 C   0  0  0  0  0  0  0  0  0  0  0  0
    8.0622   -1.1307    0.0000 C   0  0  0  0  0  0  0  0  0  0  0  0
    7.1962   -1.6307    0.0000 C   0  0  0  0  0  0  0  0  0  0  0  0
    2.8660   -0.1307    0.0000 C   0  0  0  0  0  0  0  0  0  0  0  0
    8.0622   -0.1307    0.0000 C   0  0  0  0  0  0  0  0  0  0  0  0
   10.1445    2.1126    0.0000 C   0  0  0  0  0  0  0  0  0  0  0  0
    8.7432    3.1307    0.0000 C   0  0  0  0  0  0  0  0  0  0  0  0
    5.4641   -1.6307    0.0000 C   0  0  0  0  0  0  0  0  0  0  0  0
    8.9282   -1.6307    0.0000 C   0  0  0  0  0  0  0  0  0  0  0  0
    7.1962   -2.6307    0.0000 C   0  0  0  0  0  0  0  0  0  0  0  0
    2.0000   -1.6307    0.0000 C   0  0  0  0  0  0  0  0  0  0  0  0
    8.9282   -2.6307    0.0000 C   0  0  0  0  0  0  0  0  0  0  0  0
    8.0622   -3.1307    0.0000 C   0  0  0  0  0  0  0  0  0  0  0  0
    9.5144    2.7188    0.0000 H   0  0  0  0  0  0  0  0  0  0  0  0
    5.2087   -0.2384    0.0000 H   0  0  0  0  0  0  0  0  0  0  0  0
    4.8101    0.4519    0.0000 H   0  0  0  0  0  0  0  0  0  0  0  0
    4.1306    0.8442    0.0000 H   0  0  0  0  0  0  0  0  0  0  0  0
    3.3335    0.8442    0.0000 H   0  0  0  0  0  0  0  0  0  0  0  0
    9.3096    3.3829    0.0000 H   0  0  0  0  0  0  0  0  0  0  0  0
   10.0797    1.4960    0.0000 H   0  0  0  0  0  0  0  0  0  0  0  0
   10.7611    2.0478    0.0000 H   0  0  0  0  0  0  0  0  0  0  0  0
   10.2093    2.7292    0.0000 H   0  0  0  0  0  0  0  0  0  0  0  0
    8.4910    3.6971    0.0000 H   0  0  0  0  0  0  0  0  0  0  0  0
    8.1768    2.8785    0.0000 H   0  0  0  0  0  0  0  0  0  0  0  0
    6.3301   -0.5107    0.0000 H   0  0  0  0  0  0  0  0  0  0  0  0
    7.1978    1.9097    0.0000 H   0  0  0  0  0  0  0  0  0  0  0  0
    9.4651   -1.3207    0.0000 H   0  0  0  0  0  0  0  0  0  0  0  0
    6.6592   -2.9407    0.0000 H   0  0  0  0  0  0  0  0  0  0  0  0
    1.6900   -1.0938    0.0000 H   0  0  0  0  0  0  0  0  0  0  0  0
    1.4631   -1.9407    0.0000 H   0  0  0  0  0  0  0  0  0  0  0  0
    2.3100   -2.1676    0.0000 H   0  0  0  0  0  0  0  0  0  0  0  0
    9.4651   -2.9407    0.0000 H   0  0  0  0  0  0  0  0  0  0  0  0
    8.0622   -3.7507    0.0000 H   0  0  0  0  0  0  0  0  0  0  0  0
  1 16  2  0  0  0  0
  2 20  2  0  0  0  0
  3  7  1  0  0  0  0
  3 16  1  0  0  0  0
  3 23  1  0  0  0  0
  4 15  1  0  0  0  0
  4 20  1  0  0  0  0
  4 37  1  0  0  0  0
  5  8  1  0  0  0  0
  5 13  1  0  0  0  0
  5 38  1  0  0  0  0
  6 13  2  0  0  0  0
  6 17  1  0  0  0  0
  7 12  2  0  0  0  0
  8 17  2  0  0  0  0
  9 13  1  0  0  0  0
  9 18  1  0  0  0  0
  9 19  1  0  0  0  0
  9 26  1  0  0  0  0
 10 11  1  0  0  0  0
 10 12  1  0  0  0  0
 10 27  1  0  0  0  0
 10 28  1  0  0  0  0
 11 16  1  0  0  0  0
 11 29  1  0  0  0  0
 11 30  1  0  0  0  0
 12 20  1  0  0  0  0
 14 15  1  0  0  0  0
 14 17  1  0  0  0  0
 14 21  2  0  0  0  0
 15 22  2  0  0  0  0
 18 32  1  0  0  0  0
 18 33  1  0  0  0  0
 18 34  1  0  0  0  0
 19 31  1  0  0  0  0
 19 35  1  0  0  0  0
 19 36  1  0  0  0  0
 21 24  1  0  0  0  0
 21 39  1  0  0  0  0
 22 25  1  0  0  0  0
 22 40  1  0  0  0  0
 23 41  1  0  0  0  0
 23 42  1  0  0  0  0
 23 43  1  0  0  0  0
 24 25  2  0  0  0  0
 24 44  1  0  0  0  0
 25 45  1  0  0  0  0
M  END
> <PUBCHEM_COMPOUND_CID>
51090865

> <PUBCHEM_COMPOUND_CANONICALIZED>
1

> <PUBCHEM_CACTVS_COMPLEXITY>
549

> <PUBCHEM_CACTVS_HBOND_ACCEPTOR>
5

> <PUBCHEM_CACTVS_HBOND_DONOR>
2

> <PUBCHEM_CACTVS_ROTATABLE_BOND>
4

> <PUBCHEM_CACTVS_SUBSKEYS>
AAADceB7sAAAAAAAAAAAAAAAAAAAAWAAAAAwQAAAAAAAAAABwAAAHgAYAAAADQiBmwQz0IbrEACqAydydACSgAuhAqAfqCE4ZJiIKLLA2ZGEIAhgngLIyAcYgwAOAAAAAAACAAAAAAAAAAQAAAAAAAAAAA==

> <PUBCHEM_IUPAC_OPENEYE_NAME>
N-[2-(5-isopropyl-1H-1,2,4-triazol-3-yl)phenyl]-1-methyl-6-oxo-4,5-dihydropyridazine-3-carboxamide

> <PUBCHEM_IUPAC_CAS_NAME>
1-methyl-6-oxo-N-[2-(5-propan-2-yl-1H-1,2,4-triazol-3-yl)phenyl]-4,5-dihydropyridazine-3-carboxamide

> <PUBCHEM_IUPAC_NAME>
1-methyl-6-oxo-N-[2-(5-propan-2-yl-1H-1,2,4-triazol-3-yl)phenyl]-4,5-dihydropyridazine-3-carboxamide

> <PUBCHEM_IUPAC_SYSTEMATIC_NAME>
1-methyl-6-oxidanylidene-N-[2-(5-propan-2-yl-1H-1,2,4-triazol-3-yl)phenyl]-4,5-dihydropyridazine-3-carboxamide

> <PUBCHEM_IUPAC_TRADITIONAL_NAME>
N-[2-(5-isopropyl-1H-1,2,4-triazol-3-yl)phenyl]-6-keto-1-methyl-4,5-dihydropyridazine-3-carboxamide

> <PUBCHEM_IUPAC_INCHI>
InChI=1S/C17H20N6O2/c1-10(2)15-19-16(21-20-15)11-6-4-5-7-12(11)18-17(25)13-8-9-14(24)23(3)22-13/h4-7,10H,8-9H2,1-3H3,(H,18,25)(H,19,20,21)

> <PUBCHEM_IUPAC_INCHIKEY>
ODUMCVOOZSTPEW-UHFFFAOYSA-N

> <PUBCHEM_XLOGP3_AA>
1.3

> <PUBCHEM_EXACT_MASS>
340.164774

> <PUBCHEM_MOLECULAR_FORMULA>
C17H20N6O2

> <PUBCHEM_MOLECULAR_WEIGHT>
340.3797

> <PUBCHEM_OPENEYE_CAN_SMILES>
CC(C)C1=NC(=NN1)C2=CC=CC=C2NC(=O)C3=NN(C(=O)CC3)C

> <PUBCHEM_OPENEYE_ISO_SMILES>
CC(C)C1=NC(=NN1)C2=CC=CC=C2NC(=O)C3=NN(C(=O)CC3)C

> <PUBCHEM_CACTVS_TPSA>
103

> <PUBCHEM_MONOISOTOPIC_WEIGHT>
340.164774

> <PUBCHEM_TOTAL_CHARGE>
0

> <PUBCHEM_HEAVY_ATOM_COUNT>
25

> <PUBCHEM_ATOM_DEF_STEREO_COUNT>
0

> <PUBCHEM_ATOM_UDEF_STEREO_COUNT>
0

> <PUBCHEM_BOND_DEF_STEREO_COUNT>
0

> <PUBCHEM_BOND_UDEF_STEREO_COUNT>
0

> <PUBCHEM_ISOTOPIC_ATOM_COUNT>
0

> <PUBCHEM_COMPONENT_COUNT>
1

> <PUBCHEM_CACTVS_TAUTO_COUNT>
88

> <PUBCHEM_COORDINATE_TYPE>
1
5
255

> <PUBCHEM_BONDANNOTATIONS>
14  15  8
14  21  8
15  22  8
21  24  8
22  25  8
24  25  8
5  13  8
5  8  8
6  13  8
6  17  8
8  17  8

$$$$

