11840
  -OEChem-06261206113D

 19 20  0     0  0  0  0  0  0999 V2000
   -1.7845    2.0584    0.0004 O   0  0  0  0  0  0  0  0  0  0  0  0
   -3.5032   -0.2441    0.0006 O   0  0  0  0  0  0  0  0  0  0  0  0
   -1.4311   -1.3922   -0.0003 N   0  0  0  0  0  0  0  0  0  0  0  0
   -0.0154    0.4194   -0.0001 C   0  0  0  0  0  0  0  0  0  0  0  0
   -0.0998   -0.9696    0.0001 C   0  0  0  0  0  0  0  0  0  0  0  0
    1.1868    1.0919   -0.0001 C   0  0  0  0  0  0  0  0  0  0  0  0
    2.3446    0.3101    0.0000 C   0  0  0  0  0  0  0  0  0  0  0  0
   -1.3889    0.9182   -0.0005 C   0  0  0  0  0  0  0  0  0  0  0  0
    1.0336   -1.7554    0.0003 C   0  0  0  0  0  0  0  0  0  0  0  0
    2.2692   -1.0987    0.0002 C   0  0  0  0  0  0  0  0  0  0  0  0
   -2.2937   -0.3110   -0.0006 C   0  0  0  0  0  0  0  0  0  0  0  0
    3.6823    0.9728   -0.0001 C   0  0  0  0  0  0  0  0  0  0  0  0
    1.2277    2.1751   -0.0018 H   0  0  0  0  0  0  0  0  0  0  0  0
   -1.7099   -2.3661    0.0001 H   0  0  0  0  0  0  0  0  0  0  0  0
    0.9797   -2.8380   -0.0001 H   0  0  0  0  0  0  0  0  0  0  0  0
    3.1807   -1.6923   -0.0016 H   0  0  0  0  0  0  0  0  0  0  0  0
    3.6283    1.9804    0.4258 H   0  0  0  0  0  0  0  0  0  0  0  0
    4.3990    0.4070    0.6048 H   0  0  0  0  0  0  0  0  0  0  0  0
    4.0641    1.0471   -1.0231 H   0  0  0  0  0  0  0  0  0  0  0  0
  1  8  2  0  0  0  0
  2 11  2  0  0  0  0
  3  5  1  0  0  0  0
  3 11  1  0  0  0  0
  3 14  1  0  0  0  0
  4  5  2  0  0  0  0
  4  6  1  0  0  0  0
  4  8  1  0  0  0  0
  5  9  1  0  0  0  0
  6  7  2  0  0  0  0
  6 13  1  0  0  0  0
  7 10  1  0  0  0  0
  7 12  1  0  0  0  0
  8 11  1  0  0  0  0
  9 10  2  0  0  0  0
  9 15  1  0  0  0  0
 10 16  1  0  0  0  0
 12 17  1  0  0  0  0
 12 18  1  0  0  0  0
 12 19  1  0  0  0  0
M  END
> <PUBCHEM_COMPOUND_CID>
11840

> <PUBCHEM_CONFORMER_RMSD>
0.4

> <PUBCHEM_CONFORMER_DIVERSEORDER>
1

> <PUBCHEM_MMFF94_PARTIAL_CHARGES>
16
1 -0.57
10 -0.15
11 0.63
12 0.14
13 0.15
14 0.37
15 0.15
16 0.15
2 -0.57
3 -0.55
4 0.09
5 0.12
6 -0.15
7 -0.14
8 0.48
9 -0.15

> <PUBCHEM_EFFECTIVE_ROTOR_COUNT>
0.2

> <PUBCHEM_PHARMACOPHORE_FEATURES>
5
1 1 acceptor
1 2 acceptor
1 3 donor
5 3 4 5 8 11 rings
6 4 5 6 7 9 10 rings

> <PUBCHEM_HEAVY_ATOM_COUNT>
12

> <PUBCHEM_ATOM_DEF_STEREO_COUNT>
0

> <PUBCHEM_ATOM_UDEF_STEREO_COUNT>
0

> <PUBCHEM_BOND_DEF_STEREO_COUNT>
0

> <PUBCHEM_BOND_UDEF_STEREO_COUNT>
0

> <PUBCHEM_ISOTOPIC_ATOM_COUNT>
0

> <PUBCHEM_COMPONENT_COUNT>
1

> <PUBCHEM_CACTVS_TAUTO_COUNT>
5

> <PUBCHEM_CONFORMER_ID>
00002E4000000001

> <PUBCHEM_MMFF94_ENERGY>
33.3221

> <PUBCHEM_FEATURE_SELFOVERLAP>
25.467

> <PUBCHEM_SHAPE_FINGERPRINT>
10608611 8 18339083790764261756
11471102 20 18410860975298719199
12897270 3 18410293588216813070
12932764 1 17313397728789421484
13380535 76 18411702058633927722
14325111 11 18410855494651657824
15775835 57 18261107452566414824
16945 1 18410573959439773574
17844478 74 18272357677343683641
193761 8 18050568739916456036
19973954 147 18265894837836579380
20201158 50 18411702066944060091
20871998 184 18116145567517927159
21040471 1 18410575119365695654
21501502 16 18338799047211547561
23235685 24 18340493274566051348
2334 1 17689997830087201440
23402539 116 18337121072271780910
23402655 69 18335997440877934021
23463225 33 18343025523265471498
23552423 10 18270397333720866186
23559900 14 17974000950200367142
2748010 2 18267020746333291836
369184 2 18408887347209933163
5084963 1 18260266373410583770
528886 8 18337958887257943050
53812653 166 18261116219001010560
7364860 26 18262519316229343310

> <PUBCHEM_SHAPE_MULTIPOLES>
230.23
4.72
1.77
0.59
0.42
0.01
0
0.89
0
0.01
0
0.06
-0.01
0

> <PUBCHEM_SHAPE_SELFOVERLAP>
507.219

> <PUBCHEM_SHAPE_VOLUME>
124.7

> <PUBCHEM_COORDINATE_TYPE>
2
5
10

$$$$

