17396093
  -OEChem-06241222543D

 40 42  0     0  0  0  0  0  0999 V2000
   -1.2269   -0.9497    1.1449 S   0  0  0  0  0  0  0  0  0  0  0  0
   -5.1438    2.3986   -0.2263 S   0  0  0  0  0  0  0  0  0  0  0  0
    0.2810   -4.0520    0.8714 O   0  0  0  0  0  0  0  0  0  0  0  0
    1.8729   -2.4644    0.3213 N   0  0  0  0  0  0  0  0  0  0  0  0
   -2.1242   -0.9171   -1.2792 N   0  0  0  0  0  0  0  0  0  0  0  0
    4.0174    1.5704    0.2707 N   0  0  0  0  0  0  0  0  0  0  0  0
    2.2584   -1.1598   -0.2142 C   0  0  0  0  0  0  0  0  0  0  0  0
    2.3282   -0.0812    0.8641 C   0  0  0  0  0  0  0  0  0  0  0  0
    0.5483   -2.9305    0.4350 C   0  0  0  0  0  0  0  0  0  0  0  0
   -0.5239   -2.0309    0.0144 C   0  0  0  0  0  0  0  0  0  0  0  0
    2.6989    1.2752    0.3167 C   0  0  0  0  0  0  0  0  0  0  0  0
    2.9758   -3.3250    0.7292 C   0  0  0  0  0  0  0  0  0  0  0  0
   -1.1265   -1.8703   -1.2156 C   0  0  0  0  0  0  0  0  0  0  0  0
   -2.2631   -0.3678   -0.0930 C   0  0  0  0  0  0  0  0  0  0  0  0
   -3.2586    0.6967    0.1615 C   0  0  0  0  0  0  0  0  0  0  0  0
    1.6964    2.1346   -0.1029 C   0  0  0  0  0  0  0  0  0  0  0  0
   -0.8017   -2.6169   -2.4486 C   0  0  0  0  0  0  0  0  0  0  0  0
    2.0713    3.3770   -0.6023 C   0  0  0  0  0  0  0  0  0  0  0  0
   -3.4711    1.3433    1.4132 C   0  0  0  0  0  0  0  0  0  0  0  0
   -4.1020    1.1749   -0.8173 C   0  0  0  0  0  0  0  0  0  0  0  0
    4.3435    2.7869   -0.2206 C   0  0  0  0  0  0  0  0  0  0  0  0
    3.4180    3.7171   -0.6657 C   0  0  0  0  0  0  0  0  0  0  0  0
   -4.4682    2.2911    1.3434 C   0  0  0  0  0  0  0  0  0  0  0  0
    1.5460   -0.8605   -0.9895 H   0  0  0  0  0  0  0  0  0  0  0  0
    3.2265   -1.2622   -0.7207 H   0  0  0  0  0  0  0  0  0  0  0  0
    1.3988   -0.0020    1.4317 H   0  0  0  0  0  0  0  0  0  0  0  0
    3.0846   -0.3669    1.6073 H   0  0  0  0  0  0  0  0  0  0  0  0
    3.5856   -2.7982    1.4686 H   0  0  0  0  0  0  0  0  0  0  0  0
    2.6227   -4.2614    1.1680 H   0  0  0  0  0  0  0  0  0  0  0  0
    3.5841   -3.5567   -0.1501 H   0  0  0  0  0  0  0  0  0  0  0  0
    0.6485    1.8593   -0.0515 H   0  0  0  0  0  0  0  0  0  0  0  0
    0.2288   -2.4181   -2.7594 H   0  0  0  0  0  0  0  0  0  0  0  0
   -1.4631   -2.3287   -3.2719 H   0  0  0  0  0  0  0  0  0  0  0  0
   -0.9141   -3.6940   -2.2891 H   0  0  0  0  0  0  0  0  0  0  0  0
    1.3154    4.0786   -0.9420 H   0  0  0  0  0  0  0  0  0  0  0  0
   -2.9356    1.1439    2.3328 H   0  0  0  0  0  0  0  0  0  0  0  0
   -4.1673    0.8735   -1.8541 H   0  0  0  0  0  0  0  0  0  0  0  0
    5.4062    3.0034   -0.2489 H   0  0  0  0  0  0  0  0  0  0  0  0
    3.7333    4.6798   -1.0514 H   0  0  0  0  0  0  0  0  0  0  0  0
   -4.8323    2.9256    2.1391 H   0  0  0  0  0  0  0  0  0  0  0  0
  1 10  1  0  0  0  0
  1 14  1  0  0  0  0
  2 20  1  0  0  0  0
  2 23  1  0  0  0  0
  3  9  2  0  0  0  0
  4  7  1  0  0  0  0
  4  9  1  0  0  0  0
  4 12  1  0  0  0  0
  5 13  1  0  0  0  0
  5 14  2  0  0  0  0
  6 11  1  0  0  0  0
  6 21  2  0  0  0  0
  7  8  1  0  0  0  0
  7 24  1  0  0  0  0
  7 25  1  0  0  0  0
  8 11  1  0  0  0  0
  8 26  1  0  0  0  0
  8 27  1  0  0  0  0
  9 10  1  0  0  0  0
 10 13  2  0  0  0  0
 11 16  2  0  0  0  0
 12 28  1  0  0  0  0
 12 29  1  0  0  0  0
 12 30  1  0  0  0  0
 13 17  1  0  0  0  0
 14 15  1  0  0  0  0
 15 19  1  0  0  0  0
 15 20  2  0  0  0  0
 16 18  1  0  0  0  0
 16 31  1  0  0  0  0
 17 32  1  0  0  0  0
 17 33  1  0  0  0  0
 17 34  1  0  0  0  0
 18 22  2  0  0  0  0
 18 35  1  0  0  0  0
 19 23  2  0  0  0  0
 19 36  1  0  0  0  0
 20 37  1  0  0  0  0
 21 22  1  0  0  0  0
 21 38  1  0  0  0  0
 22 39  1  0  0  0  0
 23 40  1  0  0  0  0
M  END
> <PUBCHEM_COMPOUND_CID>
17396093

> <PUBCHEM_CONFORMER_RMSD>
0.8

> <PUBCHEM_CONFORMER_DIVERSEORDER>
2
18
85
184
239
192
110
88
24
68
180
136
256
165
302
162
114
82
275
230
210
150
57
134
259
103
254
172
140
205
120
128
262
236
90
65
147
220
78
102
108
153
141
183
148
203
130
159
40
300
46
208
152
213
29
252
253
266
231
92
131
235
45
149
163
287
93
160
276
23
116
255
58
219
200
109
267
124
20
133
167
181
129
261
264
143
215
195
100
196
44
178
62
107
118
89
156
188
146
299
170
144
63
94
207
83
39
17
4
270
291
67
295
212
190
177
237
72
112
138
263
232
211
228
54
69
209
225
115
106
294
111
245
95
76
221
142
13
32
10
233
301
101
290
214
7
174
281
53
244
157
79
260
168
251
75
176
1
123
73
42
81
269
271
297
227
117
3
223
280
298
284
5
52
265
164
51
28
71
182
193
218
283
288
238
121
77
122
175
296
158
224
119
293
26
191
250
59
226
91
246
274
87
242
289
243
27
86
64
171
11
268
12
249
248
282
137
139
186
222
127
189
97
22
25
279
217
16
166
292
126
84
240
241
204
8
135
60
19
105
258
277
33
179
278
49
70
96
198
197
187
206
35
99
56
155
21
80
286
47
98
31
199
50
202
161
285
37
229
113
38
43
201
216
61
15
66
74
6
104
272
48
41
30
34
273
185
169
257
55
194
14
234
132
247
36
9
145
125
154
151
173

> <PUBCHEM_MMFF94_PARTIAL_CHARGES>
29
1 -0.08
10 -0.05
11 0.17
12 0.3
13 0.05
14 0.38
16 -0.15
17 0.18
18 -0.15
19 -0.15
2 -0.08
20 -0.11
21 0.16
22 -0.15
23 -0.11
3 -0.57
31 0.15
35 0.15
36 0.15
37 0.15
38 0.15
39 0.15
4 -0.66
40 0.15
5 -0.57
6 -0.62
7 0.3
8 0.14
9 0.71

> <PUBCHEM_EFFECTIVE_ROTOR_COUNT>
6

> <PUBCHEM_PHARMACOPHORE_FEATURES>
6
1 3 acceptor
1 5 acceptor
1 6 acceptor
5 1 5 10 13 14 rings
5 2 15 19 20 23 rings
6 6 11 16 18 21 22 rings

> <PUBCHEM_HEAVY_ATOM_COUNT>
23

> <PUBCHEM_ATOM_DEF_STEREO_COUNT>
0

> <PUBCHEM_ATOM_UDEF_STEREO_COUNT>
0

> <PUBCHEM_BOND_DEF_STEREO_COUNT>
0

> <PUBCHEM_BOND_UDEF_STEREO_COUNT>
0

> <PUBCHEM_ISOTOPIC_ATOM_COUNT>
0

> <PUBCHEM_COMPONENT_COUNT>
1

> <PUBCHEM_CACTVS_TAUTO_COUNT>
2

> <PUBCHEM_CONFORMER_ID>
0109717D00000002

> <PUBCHEM_MMFF94_ENERGY>
45.7196

> <PUBCHEM_FEATURE_SELFOVERLAP>
30.446

> <PUBCHEM_SHAPE_FINGERPRINT>
10688039 33 17552634064323182790
10871710 139 17977382737916792629
10937287 8 18339080371996745944
11640471 11 18260552207805441019
12107183 9 18199202715589880104
12173636 292 17908142079789385022
12293681 4 16468131998969798639
12788726 201 17976271131624336951
13134695 92 17909833476518127103
13583140 156 18128248099023078811
13590594 115 17907300210317399594
138480 1 18052540160059878968
14123250 116 18192715535864461285
14251751 93 18046338639722842676
14251764 75 18335408072243883257
15081414 286 18193836183369205162
151778 21 18342451543235251380
15463212 79 18193844734259234385
15475509 84 16543555185210464731
18785283 64 18342450495405169219
20621476 13 18269840976642782845
21033648 29 17059776766704119717
21041028 32 17406562875169236218
21475661 188 18129949013061465505
21860390 5 18119244219150011591
21864079 5 18268431231110907328
22182937 141 18196648488988508600
22907989 373 17547857352310623046
23558518 356 18337682935799910567
23845131 108 18273211980952382427
283562 15 17979079280011002219
474 4 18411142471766168633
5048184 11 18337671910418044269
5312544 6 18409735045590960045
6034566 193 18057598763978177589
7288768 16 17916306039245328408
9980921 221 16687917166646217236
9981440 41 18268155244886006968

> <PUBCHEM_SHAPE_MULTIPOLES>
460.22
8.79
5.54
1.41
5.94
0.56
-0.48
-10.24
0.94
-5.21
-0.46
0.9
0.76
-1.87

> <PUBCHEM_SHAPE_SELFOVERLAP>
957.117

> <PUBCHEM_SHAPE_VOLUME>
265.5

> <PUBCHEM_COORDINATE_TYPE>
2
5
10

$$$$

