8443
  -OEChem-06261202503D

 22 22  0     0  0  0  0  0  0999 V2000
    2.4684    1.4042    0.0020 O   0  0  0  0  0  0  0  0  0  0  0  0
    1.1890   -0.5755   -0.0003 N   0  0  0  0  0  0  0  0  0  0  0  0
   -0.1306   -0.1162   -0.0002 C   0  0  0  0  0  0  0  0  0  0  0  0
   -1.2001   -1.0118    0.0002 C   0  0  0  0  0  0  0  0  0  0  0  0
   -0.3716    1.2578   -0.0005 C   0  0  0  0  0  0  0  0  0  0  0  0
   -2.5104   -0.5333    0.0002 C   0  0  0  0  0  0  0  0  0  0  0  0
   -0.9719   -2.4886    0.0006 C   0  0  0  0  0  0  0  0  0  0  0  0
   -1.6818    1.7362   -0.0004 C   0  0  0  0  0  0  0  0  0  0  0  0
   -2.7511    0.8407   -0.0001 C   0  0  0  0  0  0  0  0  0  0  0  0
    2.3665    0.1818   -0.0007 C   0  0  0  0  0  0  0  0  0  0  0  0
    3.5935   -0.6953   -0.0007 C   0  0  0  0  0  0  0  0  0  0  0  0
    0.3975    2.0166   -0.0011 H   0  0  0  0  0  0  0  0  0  0  0  0
   -3.3555   -1.2165    0.0004 H   0  0  0  0  0  0  0  0  0  0  0  0
    1.3113   -1.5846   -0.0004 H   0  0  0  0  0  0  0  0  0  0  0  0
   -1.9159   -3.0449    0.0010 H   0  0  0  0  0  0  0  0  0  0  0  0
   -0.4190   -2.7935   -0.8941 H   0  0  0  0  0  0  0  0  0  0  0  0
   -0.4188   -2.7928    0.8954 H   0  0  0  0  0  0  0  0  0  0  0  0
   -1.8710    2.8058   -0.0007 H   0  0  0  0  0  0  0  0  0  0  0  0
   -3.7713    1.2134   -0.0001 H   0  0  0  0  0  0  0  0  0  0  0  0
    3.6082   -1.3103    0.9034 H   0  0  0  0  0  0  0  0  0  0  0  0
    4.4931   -0.0741   -0.0228 H   0  0  0  0  0  0  0  0  0  0  0  0
    3.5876   -1.3418   -0.8829 H   0  0  0  0  0  0  0  0  0  0  0  0
  1 10  2  0  0  0  0
  2  3  1  0  0  0  0
  2 10  1  0  0  0  0
  2 14  1  0  0  0  0
  3  4  1  0  0  0  0
  3  5  2  0  0  0  0
  4  6  2  0  0  0  0
  4  7  1  0  0  0  0
  5  8  1  0  0  0  0
  5 12  1  0  0  0  0
  6  9  1  0  0  0  0
  6 13  1  0  0  0  0
  7 15  1  0  0  0  0
  7 16  1  0  0  0  0
  7 17  1  0  0  0  0
  8  9  2  0  0  0  0
  8 18  1  0  0  0  0
  9 19  1  0  0  0  0
 10 11  1  0  0  0  0
 11 20  1  0  0  0  0
 11 21  1  0  0  0  0
 11 22  1  0  0  0  0
M  END
> <PUBCHEM_COMPOUND_CID>
8443

> <PUBCHEM_CONFORMER_RMSD>
0.4

> <PUBCHEM_CONFORMER_DIVERSEORDER>
1
2
3

> <PUBCHEM_MMFF94_PARTIAL_CHARGES>
16
1 -0.57
10 0.57
11 0.06
12 0.15
13 0.15
14 0.37
18 0.15
19 0.15
2 -0.55
3 0.12
4 -0.14
5 -0.15
6 -0.15
7 0.14
8 -0.15
9 -0.15

> <PUBCHEM_EFFECTIVE_ROTOR_COUNT>
2

> <PUBCHEM_PHARMACOPHORE_FEATURES>
3
1 1 acceptor
1 2 donor
6 3 4 5 6 8 9 rings

> <PUBCHEM_HEAVY_ATOM_COUNT>
11

> <PUBCHEM_ATOM_DEF_STEREO_COUNT>
0

> <PUBCHEM_ATOM_UDEF_STEREO_COUNT>
0

> <PUBCHEM_BOND_DEF_STEREO_COUNT>
0

> <PUBCHEM_BOND_UDEF_STEREO_COUNT>
0

> <PUBCHEM_ISOTOPIC_ATOM_COUNT>
0

> <PUBCHEM_COMPONENT_COUNT>
1

> <PUBCHEM_CACTVS_TAUTO_COUNT>
2

> <PUBCHEM_CONFORMER_ID>
000020FB00000001

> <PUBCHEM_MMFF94_ENERGY>
31.9592

> <PUBCHEM_FEATURE_SELFOVERLAP>
15.223

> <PUBCHEM_SHAPE_FINGERPRINT>
12716758 59 18409453574260389762
12932764 1 17417822742094609116
13024252 1 14692569931528249037
13380535 76 18336266846168653278
14144814 61 18340488962651027410
14325111 11 18410574011053357572
15669948 3 18338518543309162366
15775835 57 18129095787394846640
16945 1 18410855447327681925
193761 8 17690279314149712357
19973954 147 18338796715392712236
20201158 50 18186518843133689822
20645464 45 18186798110201674678
20645476 183 17845633902925992406
20871998 184 18188766128884324383
21040471 1 18410856602726645061
23402539 116 18261968400562788983
23463225 33 18198908209001741866
23552423 10 18128537063741914196
23559900 14 18261395590134751394
2748010 2 17905050248654615335
369184 2 18411138021805542337
5084963 1 18114465659736959544
6333449 129 18409451383921955653

> <PUBCHEM_SHAPE_MULTIPOLES>
215.52
4.72
2.03
0.6
3.68
0.69
0
-0.41
0
-0.81
0
-0.03
0.01
0

> <PUBCHEM_SHAPE_SELFOVERLAP>
442.179

> <PUBCHEM_SHAPE_VOLUME>
124.7

> <PUBCHEM_COORDINATE_TYPE>
2
5
10

$$$$

