10772
  -OEChem-06261204562D

 19 20  0     0  0  0  0  0  0999 V2000
    6.4103   -1.0018    0.0000 O   0  0  0  0  0  0  0  0  0  0  0  0
    2.8660   -1.1970    0.0000 O   0  0  0  0  0  0  0  0  0  0  0  0
    7.9939   -0.1970    0.0000 O   0  0  0  0  0  0  0  0  0  0  0  0
    6.4103    0.6077    0.0000 N   0  0  0  0  0  0  0  0  0  0  0  0
    5.4641    0.3030    0.0000 C   0  0  0  0  0  0  0  0  0  0  0  0
    5.4641   -0.6970    0.0000 C   0  0  0  0  0  0  0  0  0  0  0  0
    4.5981   -1.1970    0.0000 C   0  0  0  0  0  0  0  0  0  0  0  0
    4.5981    0.8030    0.0000 C   0  0  0  0  0  0  0  0  0  0  0  0
    3.7320   -0.6970    0.0000 C   0  0  0  0  0  0  0  0  0  0  0  0
    3.7320    0.3030    0.0000 C   0  0  0  0  0  0  0  0  0  0  0  0
    6.9939   -0.1970    0.0000 C   0  0  0  0  0  0  0  0  0  0  0  0
    2.0000   -0.6970    0.0000 C   0  0  0  0  0  0  0  0  0  0  0  0
    4.5981   -1.8170    0.0000 H   0  0  0  0  0  0  0  0  0  0  0  0
    4.5981    1.4230    0.0000 H   0  0  0  0  0  0  0  0  0  0  0  0
    6.6029    1.1970    0.0000 H   0  0  0  0  0  0  0  0  0  0  0  0
    3.1951    0.6130    0.0000 H   0  0  0  0  0  0  0  0  0  0  0  0
    2.3100   -0.1601    0.0000 H   0  0  0  0  0  0  0  0  0  0  0  0
    1.4631   -0.3870    0.0000 H   0  0  0  0  0  0  0  0  0  0  0  0
    1.6900   -1.2340    0.0000 H   0  0  0  0  0  0  0  0  0  0  0  0
  1  6  1  0  0  0  0
  1 11  1  0  0  0  0
  2  9  1  0  0  0  0
  2 12  1  0  0  0  0
  3 11  2  0  0  0  0
  4  5  1  0  0  0  0
  4 11  1  0  0  0  0
  4 15  1  0  0  0  0
  5  6  2  0  0  0  0
  5  8  1  0  0  0  0
  6  7  1  0  0  0  0
  7  9  2  0  0  0  0
  7 13  1  0  0  0  0
  8 10  2  0  0  0  0
  8 14  1  0  0  0  0
  9 10  1  0  0  0  0
 10 16  1  0  0  0  0
 12 17  1  0  0  0  0
 12 18  1  0  0  0  0
 12 19  1  0  0  0  0
M  END
> <PUBCHEM_COMPOUND_CID>
10772

> <PUBCHEM_COMPOUND_CANONICALIZED>
1

> <PUBCHEM_CACTVS_COMPLEXITY>
195

> <PUBCHEM_CACTVS_HBOND_ACCEPTOR>
3

> <PUBCHEM_CACTVS_HBOND_DONOR>
1

> <PUBCHEM_CACTVS_ROTATABLE_BOND>
1

> <PUBCHEM_CACTVS_SUBSKEYS>
AAADcYByMAAAAAAAAAAAAAAAAAAAAWAAAAAwAAAAAAAAAFgBAAAAHgAQAAAACAyBkAIyzoLABACIACRCWACCCAAhIgAIiAAHbIkOJyLEsZuNMihl1BVY6AewYAwAAEAACAAAEAAAgAAQAAAgAAAAAAAAAA==

> <PUBCHEM_IUPAC_OPENEYE_NAME>
6-methoxy-3H-1,3-benzoxazol-2-one

> <PUBCHEM_IUPAC_CAS_NAME>
6-methoxy-3H-1,3-benzoxazol-2-one

> <PUBCHEM_IUPAC_NAME>
6-methoxy-3H-1,3-benzoxazol-2-one

> <PUBCHEM_IUPAC_SYSTEMATIC_NAME>
6-methoxy-3H-1,3-benzoxazol-2-one

> <PUBCHEM_IUPAC_TRADITIONAL_NAME>
6-methoxy-3H-1,3-benzoxazol-2-one

> <PUBCHEM_IUPAC_INCHI>
InChI=1S/C8H7NO3/c1-11-5-2-3-6-7(4-5)12-8(10)9-6/h2-4H,1H3,(H,9,10)

> <PUBCHEM_IUPAC_INCHIKEY>
MKMCJLMBVKHUMS-UHFFFAOYSA-N

> <PUBCHEM_XLOGP3>
1.1

> <PUBCHEM_EXACT_MASS>
165.042593

> <PUBCHEM_MOLECULAR_FORMULA>
C8H7NO3

> <PUBCHEM_MOLECULAR_WEIGHT>
165.14608

> <PUBCHEM_OPENEYE_CAN_SMILES>
COC1=CC2=C(C=C1)NC(=O)O2

> <PUBCHEM_OPENEYE_ISO_SMILES>
COC1=CC2=C(C=C1)NC(=O)O2

> <PUBCHEM_CACTVS_TPSA>
47.6

> <PUBCHEM_MONOISOTOPIC_WEIGHT>
165.042593

> <PUBCHEM_TOTAL_CHARGE>
0

> <PUBCHEM_HEAVY_ATOM_COUNT>
12

> <PUBCHEM_ATOM_DEF_STEREO_COUNT>
0

> <PUBCHEM_ATOM_UDEF_STEREO_COUNT>
0

> <PUBCHEM_BOND_DEF_STEREO_COUNT>
0

> <PUBCHEM_BOND_UDEF_STEREO_COUNT>
0

> <PUBCHEM_ISOTOPIC_ATOM_COUNT>
0

> <PUBCHEM_COMPONENT_COUNT>
1

> <PUBCHEM_CACTVS_TAUTO_COUNT>
2

> <PUBCHEM_COORDINATE_TYPE>
1
5
255

> <PUBCHEM_BONDANNOTATIONS>
1  11  8
1  6  8
4  11  8
4  5  8
5  6  8
5  8  8
6  7  8
7  9  8
8  10  8
9  10  8

$$$$

