47205300
  -OEChem-06241222583D

 40 41  0     1  0  0  0  0  0999 V2000
   -0.0736   -0.7242   -0.0079 O   0  0  0  0  0  0  0  0  0  0  0  0
   -3.4059   -0.9477   -0.0739 O   0  0  0  0  0  0  0  0  0  0  0  0
   -3.5889    0.2725    1.8499 O   0  0  0  0  0  0  0  0  0  0  0  0
   -2.3538    1.0976    0.0615 N   0  0  0  0  0  0  0  0  0  0  0  0
    1.5816   -0.2144   -1.5634 N   0  0  0  0  0  0  0  0  0  0  0  0
    4.5062   -0.0815   -0.3601 N   0  0  0  0  0  0  0  0  0  0  0  0
    5.2478    0.1439    0.7379 N   0  0  0  0  0  0  0  0  0  0  0  0
   -0.3638    1.1789   -1.4235 C   0  0  2  0  0  0  0  0  0  0  0  0
    0.1023    2.4330   -0.6775 C   0  0  0  0  0  0  0  0  0  0  0  0
   -1.8762    0.9674   -1.3209 C   0  0  0  0  0  0  0  0  0  0  0  0
   -0.4653    2.5132    0.7411 C   0  0  0  0  0  0  0  0  0  0  0  0
   -1.9791    2.3355    0.7418 C   0  0  0  0  0  0  0  0  0  0  0  0
    0.3737   -0.0258   -0.9139 C   0  0  0  0  0  0  0  0  0  0  0  0
   -3.1535    0.1493    0.7065 C   0  0  0  0  0  0  0  0  0  0  0  0
    2.4918   -1.2904   -1.2438 C   0  0  0  0  0  0  0  0  0  0  0  0
    3.4456   -0.9126   -0.1477 C   0  0  0  0  0  0  0  0  0  0  0  0
   -4.2191   -1.9687    0.5157 C   0  0  0  0  0  0  0  0  0  0  0  0
    3.4973   -1.2548    1.1815 C   0  0  0  0  0  0  0  0  0  0  0  0
   -4.3937   -3.0959   -0.4795 C   0  0  0  0  0  0  0  0  0  0  0  0
    4.6266   -0.5753    1.6763 C   0  0  0  0  0  0  0  0  0  0  0  0
   -0.1223    1.2970   -2.4884 H   0  0  0  0  0  0  0  0  0  0  0  0
    1.1969    2.4801   -0.6323 H   0  0  0  0  0  0  0  0  0  0  0  0
   -0.2285    3.3178   -1.2365 H   0  0  0  0  0  0  0  0  0  0  0  0
   -2.1576    0.0002   -1.7485 H   0  0  0  0  0  0  0  0  0  0  0  0
   -2.3976    1.7379   -1.9021 H   0  0  0  0  0  0  0  0  0  0  0  0
   -0.2051    3.4790    1.1885 H   0  0  0  0  0  0  0  0  0  0  0  0
   -0.0038    1.7376    1.3642 H   0  0  0  0  0  0  0  0  0  0  0  0
   -2.4649    3.1625    0.2108 H   0  0  0  0  0  0  0  0  0  0  0  0
   -2.3524    2.3411    1.7707 H   0  0  0  0  0  0  0  0  0  0  0  0
    1.8712    0.4447   -2.2802 H   0  0  0  0  0  0  0  0  0  0  0  0
    1.9129   -2.1724   -0.9478 H   0  0  0  0  0  0  0  0  0  0  0  0
    3.0435   -1.5382   -2.1570 H   0  0  0  0  0  0  0  0  0  0  0  0
   -5.1976   -1.5504    0.7766 H   0  0  0  0  0  0  0  0  0  0  0  0
   -3.7305   -2.3464    1.4207 H   0  0  0  0  0  0  0  0  0  0  0  0
    2.8163   -1.9009    1.7160 H   0  0  0  0  0  0  0  0  0  0  0  0
    4.7823    0.3673   -1.2247 H   0  0  0  0  0  0  0  0  0  0  0  0
   -5.0110   -3.8955   -0.0607 H   0  0  0  0  0  0  0  0  0  0  0  0
   -3.4217   -3.5117   -0.7647 H   0  0  0  0  0  0  0  0  0  0  0  0
   -4.8643   -2.7296   -1.3978 H   0  0  0  0  0  0  0  0  0  0  0  0
    5.0223   -0.5743    2.6817 H   0  0  0  0  0  0  0  0  0  0  0  0
  1 13  2  0  0  0  0
  2 14  1  0  0  0  0
  2 17  1  0  0  0  0
  3 14  2  0  0  0  0
  4 10  1  0  0  0  0
  4 12  1  0  0  0  0
  4 14  1  0  0  0  0
  5 13  1  0  0  0  0
  5 15  1  0  0  0  0
  5 30  1  0  0  0  0
  6  7  1  0  0  0  0
  6 16  1  0  0  0  0
  6 36  1  0  0  0  0
  7 20  2  0  0  0  0
  8  9  1  0  0  0  0
  8 10  1  0  0  0  0
  8 13  1  0  0  0  0
  8 21  1  0  0  0  0
  9 11  1  0  0  0  0
  9 22  1  0  0  0  0
  9 23  1  0  0  0  0
 10 24  1  0  0  0  0
 10 25  1  0  0  0  0
 11 12  1  0  0  0  0
 11 26  1  0  0  0  0
 11 27  1  0  0  0  0
 12 28  1  0  0  0  0
 12 29  1  0  0  0  0
 15 16  1  0  0  0  0
 15 31  1  0  0  0  0
 15 32  1  0  0  0  0
 16 18  2  0  0  0  0
 17 19  1  0  0  0  0
 17 33  1  0  0  0  0
 17 34  1  0  0  0  0
 18 20  1  0  0  0  0
 18 35  1  0  0  0  0
 19 37  1  0  0  0  0
 19 38  1  0  0  0  0
 19 39  1  0  0  0  0
 20 40  1  0  0  0  0
M  END
> <PUBCHEM_COMPOUND_CID>
47205300

> <PUBCHEM_CONFORMER_RMSD>
0.8

> <PUBCHEM_CONFORMER_DIVERSEORDER>
1
258
25
292
272
306
59
135
305
166
265
223
88
109
218
122
168
201
262
121
157
217
224
299
3
242
106
325
249
209
74
330
63
198
127
70
298
21
197
207
341
252
287
100
212
60
289
312
72
279
285
331
234
169
41
32
257
165
87
67
31
15
199
156
288
96
276
12
50
71
159
177
137
208
271
295
145
319
301
23
39
320
140
163
281
27
213
278
322
142
304
286
175
228
68
336
105
24
51
180
133
147
131
22
321
42
61
327
148
200
85
115
185
167
113
260
120
240
303
150
245
118
84
183
196
219
119
189
73
130
268
77
244
182
247
126
114
337
81
324
323
97
160
300
110
203
269
333
28
233
75
58
192
329
65
14
36
193
69
13
255
29
267
241
259
188
216
139
101
190
316
154
308
178
138
162
254
38
173
155
274
146
94
80
317
95
112
143
149
132
227
161
49
222
214
107
46
33
206
309
54
307
296
55
35
256
230
302
4
310
6
18
246
44
37
215
340
338
191
62
43
176
98
243
17
170
184
91
141
82
235
264
283
311
314
151
332
125
86
315
328
83
174
78
291
284
7
250
76
282
56
339
9
103
53
253
204
158
326
20
47
164
210
238
66
237
236
211
134
16
313
92
153
144
26
280
263
251
220
186
181
40
11
334
79
90
335
275
10
45
179
290
229
297
89
117
2
30
64
124
136
231
57
99
34
129
318
261
225
123
277
239
104
93
232
248
293
102
128
171
116
187
108
270
172
111
8
266
52
195
273
221
202
152
19
194
294
5
48
226
205

> <PUBCHEM_MMFF94_PARTIAL_CHARGES>
21
1 -0.57
10 0.3
12 0.3
13 0.57
14 0.78
15 0.48
16 -0.33
17 0.28
18 -0.15
2 -0.43
20 0.14
3 -0.57
30 0.37
35 0.15
36 0.27
4 -0.66
40 0.15
5 -0.73
6 0.3
7 -0.71
8 0.06

> <PUBCHEM_EFFECTIVE_ROTOR_COUNT>
8.2

> <PUBCHEM_PHARMACOPHORE_FEATURES>
7
1 1 acceptor
1 3 acceptor
1 5 donor
1 6 donor
1 7 acceptor
5 6 7 16 18 20 rings
6 4 8 9 10 11 12 rings

> <PUBCHEM_HEAVY_ATOM_COUNT>
20

> <PUBCHEM_ATOM_DEF_STEREO_COUNT>
0

> <PUBCHEM_ATOM_UDEF_STEREO_COUNT>
1

> <PUBCHEM_BOND_DEF_STEREO_COUNT>
0

> <PUBCHEM_BOND_UDEF_STEREO_COUNT>
0

> <PUBCHEM_ISOTOPIC_ATOM_COUNT>
0

> <PUBCHEM_COMPONENT_COUNT>
1

> <PUBCHEM_CACTVS_TAUTO_COUNT>
4

> <PUBCHEM_CONFORMER_ID>
02D04BB400000001

> <PUBCHEM_MMFF94_ENERGY>
19.1424

> <PUBCHEM_FEATURE_SELFOVERLAP>
35.52

> <PUBCHEM_SHAPE_FINGERPRINT>
10681291 71 9511193949412660095
10803635 8 10303807718464022888
11370993 144 17024296625243727463
11552529 35 18336548334161991818
12553582 1 18267843078468988191
12596602 18 18200887244596635904
128238 76 18191023400828787886
12892183 10 17168133564105970135
13083527 12 18264489494736470373
13828863 39 15720244859539632714
14081887 123 18335419127056406755
14178342 30 18267013049757289111
14251751 93 12103842324505126633
14251757 17 14548745001463450347
14289901 80 18336821009024824450
14341114 328 18410849984593726320
14787075 74 18271804562976152752
14848178 5 16917072144182005178
15163728 17 8141813832043292193
15415430 10 18339925922466681327
15534591 1 7420943167024293989
17349148 13 17346310527367882266
18186145 218 15358276973591137012
19032999 76 18268725938782163075
200 152 16487254400141349412
20567600 70 18124316004365158267
20621476 91 18338532836802152770
20645477 70 14836110075291985322
21069387 34 14907604744892854342
21452121 199 18267581321544734469
23402655 69 6843911803057645402
23419403 2 18196396743902379133
23557571 272 18188479285045090742
23559900 14 18118108402358835526
32948 21 9655580712486279934
339767 52 18342465811517574359
392239 28 18410858750579591376
474 4 6843937048374101759
49207404 50 17822294651613374750
5161694 15 12175614084053387494
633830 44 5256397310738347612
6442390 28 17967811631326893678
85463 6 18130786784659598371
9882013 296 18412824711750820104

> <PUBCHEM_SHAPE_MULTIPOLES>
374.06
9.75
2.78
1.56
6.06
0.12
0.08
-7.07
3.78
-3.51
0.02
0.44
0.09
-0.5

> <PUBCHEM_SHAPE_SELFOVERLAP>
766.407

> <PUBCHEM_SHAPE_VOLUME>
213.7

> <PUBCHEM_COORDINATE_TYPE>
2
5
10

$$$$

