582711
  -OEChem-06241222433D

 22 23  0     0  0  0  0  0  0999 V2000
   -1.3218   -2.4315    0.0672 O   0  0  0  0  0  0  0  0  0  0  0  0
   -3.2735   -0.5238   -0.0593 O   0  0  0  0  0  0  0  0  0  0  0  0
   -1.0276   -1.0595    0.0145 N   0  0  0  0  0  0  0  0  0  0  0  0
    0.6496    0.6740    0.0023 C   0  0  0  0  0  0  0  0  0  0  0  0
    0.3300   -0.6973    0.0003 C   0  0  0  0  0  0  0  0  0  0  0  0
   -0.4514    1.6663    0.0116 C   0  0  0  0  0  0  0  0  0  0  0  0
   -1.7277    1.2459    0.0016 C   0  0  0  0  0  0  0  0  0  0  0  0
    2.0033    1.0458   -0.0058 C   0  0  0  0  0  0  0  0  0  0  0  0
    1.3455   -1.6637   -0.0093 C   0  0  0  0  0  0  0  0  0  0  0  0
   -2.0896   -0.1961   -0.0186 C   0  0  0  0  0  0  0  0  0  0  0  0
   -0.1308    3.1335    0.0290 C   0  0  0  0  0  0  0  0  0  0  0  0
    3.0111    0.0790   -0.0159 C   0  0  0  0  0  0  0  0  0  0  0  0
    2.6828   -1.2728   -0.0176 C   0  0  0  0  0  0  0  0  0  0  0  0
   -2.5551    1.9486    0.0037 H   0  0  0  0  0  0  0  0  0  0  0  0
    2.3036    2.0903   -0.0051 H   0  0  0  0  0  0  0  0  0  0  0  0
    1.1184   -2.7263   -0.0111 H   0  0  0  0  0  0  0  0  0  0  0  0
    0.4413    3.4176   -0.8607 H   0  0  0  0  0  0  0  0  0  0  0  0
    0.4461    3.3952    0.9225 H   0  0  0  0  0  0  0  0  0  0  0  0
   -1.0367    3.7500    0.0393 H   0  0  0  0  0  0  0  0  0  0  0  0
    4.0536    0.3841   -0.0224 H   0  0  0  0  0  0  0  0  0  0  0  0
    3.4682   -2.0228   -0.0254 H   0  0  0  0  0  0  0  0  0  0  0  0
   -1.5772   -2.5947   -0.8571 H   0  0  0  0  0  0  0  0  0  0  0  0
  1  3  1  0  0  0  0
  1 22  1  0  0  0  0
  2 10  2  0  0  0  0
  3  5  1  0  0  0  0
  3 10  1  0  0  0  0
  4  5  1  0  0  0  0
  4  6  1  0  0  0  0
  4  8  2  0  0  0  0
  5  9  2  0  0  0  0
  6  7  2  0  0  0  0
  6 11  1  0  0  0  0
  7 10  1  0  0  0  0
  7 14  1  0  0  0  0
  8 12  1  0  0  0  0
  8 15  1  0  0  0  0
  9 13  1  0  0  0  0
  9 16  1  0  0  0  0
 11 17  1  0  0  0  0
 11 18  1  0  0  0  0
 11 19  1  0  0  0  0
 12 13  2  0  0  0  0
 12 20  1  0  0  0  0
 13 21  1  0  0  0  0
M  END
> <PUBCHEM_COMPOUND_CID>
582711

> <PUBCHEM_CONFORMER_RMSD>
0.4

> <PUBCHEM_CONFORMER_DIVERSEORDER>
1

> <PUBCHEM_MMFF94_PARTIAL_CHARGES>
19
1 -0.44
10 0.62
11 0.14
12 -0.15
13 -0.15
14 0.15
15 0.15
16 0.15
2 -0.57
20 0.15
21 0.15
22 0.4
3 -0.14
4 0.03
5 0.12
6 -0.17
7 -0.14
8 -0.15
9 -0.15

> <PUBCHEM_EFFECTIVE_ROTOR_COUNT>
0

> <PUBCHEM_PHARMACOPHORE_FEATURES>
3
1 2 acceptor
6 3 4 5 6 7 10 rings
6 4 5 8 9 12 13 rings

> <PUBCHEM_HEAVY_ATOM_COUNT>
13

> <PUBCHEM_ATOM_DEF_STEREO_COUNT>
0

> <PUBCHEM_ATOM_UDEF_STEREO_COUNT>
0

> <PUBCHEM_BOND_DEF_STEREO_COUNT>
0

> <PUBCHEM_BOND_UDEF_STEREO_COUNT>
0

> <PUBCHEM_ISOTOPIC_ATOM_COUNT>
0

> <PUBCHEM_COMPONENT_COUNT>
1

> <PUBCHEM_CACTVS_TAUTO_COUNT>
1

> <PUBCHEM_CONFORMER_ID>
0008E43700000001

> <PUBCHEM_MMFF94_ENERGY>
37.398

> <PUBCHEM_FEATURE_SELFOVERLAP>
15.247

> <PUBCHEM_SHAPE_FINGERPRINT>
10967382 1 18338517430516707846
11206711 2 18267581501706222148
12032990 46 18411411813133506043
12382932 28 18337677412444658938
12423570 1 11471189015850333001
12524768 44 18334571343451358182
13140716 1 17906170655345947929
13380535 76 17618792795737407797
14648413 74 18053102813755547961
16945 1 18410855438764218536
193761 8 17545883728643339726
19973954 147 18193837269863828380
20510252 161 18261958577914833608
20588541 1 18410572851290692978
20871998 184 18115592684930430710
21040471 1 17906171012018039648
21501502 16 18266455597731174136
2334 1 18194682807106126414
23402539 116 18262252091463289799
23463225 33 18411980286324848416
23552423 10 18272083954672159294
23559900 14 18190176966513617206
241688 4 18338797921972574177
2748010 2 18338800129701737165
2897 32 18196933490180809494
5084963 1 18042692890903207466
528886 8 18337677416723912234
66348 1 18337671914759867216
7364860 26 17975693887813902777

> <PUBCHEM_SHAPE_MULTIPOLES>
250.81
3.87
2.69
0.6
0.57
0.99
0
-1
-0.06
-0.76
0.04
0.04
0.03
0

> <PUBCHEM_SHAPE_SELFOVERLAP>
543.524

> <PUBCHEM_SHAPE_VOLUME>
137.3

> <PUBCHEM_COORDINATE_TYPE>
2
5
10

$$$$

