7847025
  -OEChem-06241222483D

 48 51  0     0  0  0  0  0  0999 V2000
    5.3838   -0.4912   -0.9667 S   0  0  0  0  0  0  0  0  0  0  0  0
    2.2913    2.0153   -0.3969 O   0  0  0  0  0  0  0  0  0  0  0  0
    2.6562    3.5605    1.2768 O   0  0  0  0  0  0  0  0  0  0  0  0
    0.7654    0.3610   -1.8317 O   0  0  0  0  0  0  0  0  0  0  0  0
    4.0150   -0.1371    1.1904 N   0  0  0  0  0  0  0  0  0  0  0  0
    5.3581    1.8248    0.5211 C   0  0  0  0  0  0  0  0  0  0  0  0
    4.4664    2.8603   -0.1892 C   0  0  0  0  0  0  0  0  0  0  0  0
    4.8555    0.4425    0.3654 C   0  0  0  0  0  0  0  0  0  0  0  0
    4.4131   -1.8061   -0.4175 C   0  0  0  0  0  0  0  0  0  0  0  0
    3.7516   -1.4276    0.7547 C   0  0  0  0  0  0  0  0  0  0  0  0
   -3.9128    0.1451   -0.1766 C   0  0  0  0  0  0  0  0  0  0  0  0
   -1.2494    0.6549   -0.6492 C   0  0  0  0  0  0  0  0  0  0  0  0
   -5.3125   -0.1242    0.0726 C   0  0  0  0  0  0  0  0  0  0  0  0
    3.0502    2.8800    0.3398 C   0  0  0  0  0  0  0  0  0  0  0  0
   -3.2542   -0.5000   -1.2235 C   0  0  0  0  0  0  0  0  0  0  0  0
   -3.2216    1.0484    0.6308 C   0  0  0  0  0  0  0  0  0  0  0  0
    0.9161    1.9206   -0.0121 C   0  0  0  0  0  0  0  0  0  0  0  0
   -1.9045   -0.2416   -1.4629 C   0  0  0  0  0  0  0  0  0  0  0  0
   -1.8720    1.3067    0.3913 C   0  0  0  0  0  0  0  0  0  0  0  0
    0.1932    0.9323   -0.9063 C   0  0  0  0  0  0  0  0  0  0  0  0
    4.2488   -3.0807   -0.9831 C   0  0  0  0  0  0  0  0  0  0  0  0
    2.8959   -2.3597    1.3808 C   0  0  0  0  0  0  0  0  0  0  0  0
    3.3964   -3.9842   -0.3435 C   0  0  0  0  0  0  0  0  0  0  0  0
    2.7277   -3.6304    0.8232 C   0  0  0  0  0  0  0  0  0  0  0  0
   -5.6814   -1.1529    0.9393 C   0  0  0  0  0  0  0  0  0  0  0  0
   -6.2925    0.6462   -0.5528 C   0  0  0  0  0  0  0  0  0  0  0  0
   -7.0308   -1.4109    1.1810 C   0  0  0  0  0  0  0  0  0  0  0  0
   -7.6419    0.3882   -0.3111 C   0  0  0  0  0  0  0  0  0  0  0  0
   -8.0110   -0.6403    0.5557 C   0  0  0  0  0  0  0  0  0  0  0  0
    6.3851    1.9184    0.1483 H   0  0  0  0  0  0  0  0  0  0  0  0
    5.3963    2.0646    1.5915 H   0  0  0  0  0  0  0  0  0  0  0  0
    4.8835    3.8649   -0.0513 H   0  0  0  0  0  0  0  0  0  0  0  0
    4.4437    2.6884   -1.2723 H   0  0  0  0  0  0  0  0  0  0  0  0
   -3.7782   -1.2073   -1.8621 H   0  0  0  0  0  0  0  0  0  0  0  0
   -3.7205    1.5597    1.4508 H   0  0  0  0  0  0  0  0  0  0  0  0
   -1.4105   -0.7540   -2.2826 H   0  0  0  0  0  0  0  0  0  0  0  0
   -1.3743    2.0169    1.0416 H   0  0  0  0  0  0  0  0  0  0  0  0
    0.8737    1.5641    1.0225 H   0  0  0  0  0  0  0  0  0  0  0  0
    0.4534    2.9070   -0.1226 H   0  0  0  0  0  0  0  0  0  0  0  0
    4.7675   -3.3638   -1.8939 H   0  0  0  0  0  0  0  0  0  0  0  0
    2.3680   -2.0935    2.2922 H   0  0  0  0  0  0  0  0  0  0  0  0
    3.2550   -4.9760   -0.7649 H   0  0  0  0  0  0  0  0  0  0  0  0
    2.0684   -4.3461    1.3066 H   0  0  0  0  0  0  0  0  0  0  0  0
   -4.9300   -1.7629    1.4352 H   0  0  0  0  0  0  0  0  0  0  0  0
   -6.0223    1.4521   -1.2311 H   0  0  0  0  0  0  0  0  0  0  0  0
   -7.3183   -2.2116    1.8560 H   0  0  0  0  0  0  0  0  0  0  0  0
   -8.4053    0.9883   -0.7979 H   0  0  0  0  0  0  0  0  0  0  0  0
   -9.0617   -0.8411    0.7440 H   0  0  0  0  0  0  0  0  0  0  0  0
  1  8  1  0  0  0  0
  1  9  1  0  0  0  0
  2 14  1  0  0  0  0
  2 17  1  0  0  0  0
  3 14  2  0  0  0  0
  4 20  2  0  0  0  0
  5  8  2  0  0  0  0
  5 10  1  0  0  0  0
  6  7  1  0  0  0  0
  6  8  1  0  0  0  0
  6 30  1  0  0  0  0
  6 31  1  0  0  0  0
  7 14  1  0  0  0  0
  7 32  1  0  0  0  0
  7 33  1  0  0  0  0
  9 10  1  0  0  0  0
  9 21  2  0  0  0  0
 10 22  2  0  0  0  0
 11 13  1  0  0  0  0
 11 15  2  0  0  0  0
 11 16  1  0  0  0  0
 12 18  2  0  0  0  0
 12 19  1  0  0  0  0
 12 20  1  0  0  0  0
 13 25  2  0  0  0  0
 13 26  1  0  0  0  0
 15 18  1  0  0  0  0
 15 34  1  0  0  0  0
 16 19  2  0  0  0  0
 16 35  1  0  0  0  0
 17 20  1  0  0  0  0
 17 38  1  0  0  0  0
 17 39  1  0  0  0  0
 18 36  1  0  0  0  0
 19 37  1  0  0  0  0
 21 23  1  0  0  0  0
 21 40  1  0  0  0  0
 22 24  1  0  0  0  0
 22 41  1  0  0  0  0
 23 24  2  0  0  0  0
 23 42  1  0  0  0  0
 24 43  1  0  0  0  0
 25 27  1  0  0  0  0
 25 44  1  0  0  0  0
 26 28  2  0  0  0  0
 26 45  1  0  0  0  0
 27 29  2  0  0  0  0
 27 46  1  0  0  0  0
 28 29  1  0  0  0  0
 28 47  1  0  0  0  0
 29 48  1  0  0  0  0
M  END
> <PUBCHEM_COMPOUND_CID>
7847025

> <PUBCHEM_CONFORMER_RMSD>
1

> <PUBCHEM_CONFORMER_DIVERSEORDER>
1
33
22
289
275
32
300
45
126
322
274
114
224
301
48
142
324
108
185
5
12
265
83
253
64
85
40
190
219
56
120
242
314
259
11
158
51
293
100
46
268
95
201
304
86
148
186
170
318
124
2
77
264
127
198
133
102
105
141
247
90
62
254
270
61
69
278
137
263
118
10
181
312
248
130
16
101
112
70
23
302
109
195
204
4
145
197
222
138
152
183
295
290
36
303
320
149
326
331
211
136
76
214
260
299
267
19
26
225
93
9
111
184
98
160
200
310
234
180
132
245
131
96
283
308
140
107
72
55
329
157
21
47
25
156
175
223
246
119
216
113
294
220
37
155
75
307
311
269
139
239
89
189
58
27
191
15
240
286
88
273
163
147
92
305
60
78
244
13
232
321
24
226
81
66
29
18
231
134
14
221
271
257
171
276
210
209
192
319
237
306
80
243
123
168
165
212
129
196
143
43
217
34
249
250
177
315
122
229
272
84
8
31
251
28
172
79
103
262
296
74
178
207
154
255
179
65
188
298
153
313
327
281
53
199
252
230
42
104
71
91
317
6
182
39
63
50
297
205
146
241
30
208
7
117
227
292
159
203
291
144
161
3
57
316
187
280
330
287
54
94
238
116
35
169
323
99
258
284
49
121
106
256
125
235
233
97
325
20
67
285
73
167
218
266
166
162
44
213
288
110
135
87
228
52
41
115
38
332
277
279
151
17
173
193
236
59
328
309
68
215
202
282
82
150
164
128
261
194
206
176
174

> <PUBCHEM_MMFF94_PARTIAL_CHARGES>
40
1 -0.08
10 0.23
12 0.09
14 0.66
15 -0.15
16 -0.15
17 0.34
18 -0.15
19 -0.15
2 -0.43
20 0.42
21 -0.15
22 -0.15
23 -0.15
24 -0.15
25 -0.15
26 -0.15
27 -0.15
28 -0.15
29 -0.15
3 -0.57
34 0.15
35 0.15
36 0.15
37 0.15
4 -0.57
40 0.15
41 0.15
42 0.15
43 0.15
44 0.15
45 0.15
46 0.15
47 0.15
48 0.15
5 -0.57
6 0.18
7 0.06
8 0.2
9 0.04

> <PUBCHEM_EFFECTIVE_ROTOR_COUNT>
8

> <PUBCHEM_PHARMACOPHORE_FEATURES>
7
1 3 acceptor
1 4 acceptor
1 5 acceptor
5 1 5 8 9 10 rings
6 11 12 15 16 18 19 rings
6 13 25 26 27 28 29 rings
6 9 10 21 22 23 24 rings

> <PUBCHEM_HEAVY_ATOM_COUNT>
29

> <PUBCHEM_ATOM_DEF_STEREO_COUNT>
0

> <PUBCHEM_ATOM_UDEF_STEREO_COUNT>
0

> <PUBCHEM_BOND_DEF_STEREO_COUNT>
0

> <PUBCHEM_BOND_UDEF_STEREO_COUNT>
0

> <PUBCHEM_ISOTOPIC_ATOM_COUNT>
0

> <PUBCHEM_COMPONENT_COUNT>
1

> <PUBCHEM_CACTVS_TAUTO_COUNT>
4

> <PUBCHEM_CONFORMER_ID>
0077BC7100000001

> <PUBCHEM_MMFF94_ENERGY>
70.2985

> <PUBCHEM_FEATURE_SELFOVERLAP>
35.592

> <PUBCHEM_SHAPE_FINGERPRINT>
10316853 100 18202279182671869074
10864689 126 18058448862692145051
10951579 204 17058941146530915525
11181472 205 18340760529561134453
117089 54 17901376011761414758
12107183 9 17829040253786279049
12128747 34 18342740754049254165
13533116 47 18408041805852269313
1361 2 18410856559856587418
13617811 41 15482673485753796407
13782708 43 18272933834891616391
13785724 45 18044366364859803246
14114211 68 18130208408186223726
15352257 5 18059853944447621315
15392192 104 17843953755307500505
15419008 42 17558293143772307911
15483637 11 18051411768914658658
15721738 202 18333730247257985834
15927050 60 18192150395546875711
19301679 30 18343025518448985793
19315092 285 17201367506089766618
1979834 28 18337403677479141704
20397935 70 18413386531674220493
21197605 99 18198056980638126818
21344244 78 18114195163124413352
21623969 137 18273216378523639402
21792965 131 18116730530360961415
22033318 11 17751336565124989185
23559900 14 18131348597185183933
25269216 80 15481805902418137699
3178227 256 18341339916517070360
345986 75 17896045502005730960
3633792 109 18341901822877899453
394071 54 18186799188275792263
404807 14 17762049244190183939
4073 2 18199464377280579963
4093350 32 18411140216702623369
4144715 1 18060132108305668585
437795 51 18341887464184998614
46194498 28 17989489610964234348
5104073 3 18262222405609507305
6441014 3 17475517656026336642
77296 10 18411697733976634529
86090 222 17917424328470584074
9831232 110 17917992780952097295

> <PUBCHEM_SHAPE_MULTIPOLES>
578.07
19.63
3.96
1.29
35.56
1.45
-0.12
4.39
2.7
-8.89
0.8
-0.15
0.25
1.29

> <PUBCHEM_SHAPE_SELFOVERLAP>
1254.028

> <PUBCHEM_SHAPE_VOLUME>
317.2

> <PUBCHEM_COORDINATE_TYPE>
2
5
10

$$$$

