3536
  -OEChem-06251223292D

 46 50  0     0  0  0  0  0  0999 V2000
    4.2816    3.8151    0.0000 S   0  0  0  0  0  0  0  0  0  0  0  0
    3.2745   -2.0240    0.0000 S   0  0  0  0  0  0  0  0  0  0  0  0
    7.7918    1.6790    0.0000 O   0  0  0  0  0  0  0  0  0  0  0  0
    4.0188   -2.6918    0.0000 O   0  0  0  0  0  0  0  0  0  0  0  0
    2.5302   -1.3561    0.0000 O   0  0  0  0  0  0  0  0  0  0  0  0
    7.6969    3.4528    0.0000 N   0  0  0  0  0  0  0  0  0  0  0  0
    4.2816    5.4246    0.0000 N   0  0  0  0  0  0  0  0  0  0  0  0
    5.9459    0.9532    0.0000 N   0  0  0  0  0  0  0  0  0  0  0  0
    2.6067   -2.7683    0.0000 N   0  0  0  0  0  0  0  0  0  0  0  0
    3.8958   -3.9250    0.0000 N   0  0  0  0  0  0  0  0  0  0  0  0
    6.0939    3.6199    0.0000 C   0  0  0  0  0  0  0  0  0  0  0  0
    6.9599    4.1199    0.0000 C   0  0  0  0  0  0  0  0  0  0  0  0
    6.3031    2.6480    0.0000 C   0  0  0  0  0  0  0  0  0  0  0  0
    5.2278    4.1199    0.0000 C   0  0  0  0  0  0  0  0  0  0  0  0
    7.2918    2.5450    0.0000 C   0  0  0  0  0  0  0  0  0  0  0  0
    5.2278    5.1199    0.0000 C   0  0  0  0  0  0  0  0  0  0  0  0
    6.9599    5.1199    0.0000 C   0  0  0  0  0  0  0  0  0  0  0  0
    6.0939    5.6199    0.0000 C   0  0  0  0  0  0  0  0  0  0  0  0
    5.6352    1.9037    0.0000 C   0  0  0  0  0  0  0  0  0  0  0  0
    3.9424   -1.2797    0.0000 C   0  0  0  0  0  0  0  0  0  0  0  0
    5.2780    0.2089    0.0000 C   0  0  0  0  0  0  0  0  0  0  0  0
    3.6980    4.6199    0.0000 C   0  0  0  0  0  0  0  0  0  0  0  0
    4.9209   -1.4859    0.0000 C   0  0  0  0  0  0  0  0  0  0  0  0
    3.6317   -0.3292    0.0000 C   0  0  0  0  0  0  0  0  0  0  0  0
    5.5887   -0.7416    0.0000 C   0  0  0  0  0  0  0  0  0  0  0  0
    4.2995    0.4151    0.0000 C   0  0  0  0  0  0  0  0  0  0  0  0
    2.9173   -3.7188    0.0000 C   0  0  0  0  0  0  0  0  0  0  0  0
    2.2495   -4.4631    0.0000 C   0  0  0  0  0  0  0  0  0  0  0  0
    2.5602   -5.4136    0.0000 C   0  0  0  0  0  0  0  0  0  0  0  0
    4.2065   -4.8756    0.0000 C   0  0  0  0  0  0  0  0  0  0  0  0
    3.5387   -5.6199    0.0000 C   0  0  0  0  0  0  0  0  0  0  0  0
    8.3036    3.5806    0.0000 H   0  0  0  0  0  0  0  0  0  0  0  0
    7.4968    5.4299    0.0000 H   0  0  0  0  0  0  0  0  0  0  0  0
    6.0939    6.2399    0.0000 H   0  0  0  0  0  0  0  0  0  0  0  0
    5.0286    2.0316    0.0000 H   0  0  0  0  0  0  0  0  0  0  0  0
    3.0780    4.6199    0.0000 H   0  0  0  0  0  0  0  0  0  0  0  0
    5.1135   -2.0752    0.0000 H   0  0  0  0  0  0  0  0  0  0  0  0
    3.0250   -0.2013    0.0000 H   0  0  0  0  0  0  0  0  0  0  0  0
    6.1954   -0.8695    0.0000 H   0  0  0  0  0  0  0  0  0  0  0  0
    4.1069    1.0045    0.0000 H   0  0  0  0  0  0  0  0  0  0  0  0
    8.4118    1.6790    0.0000 H   0  0  0  0  0  0  0  0  0  0  0  0
    2.0000   -2.6404    0.0000 H   0  0  0  0  0  0  0  0  0  0  0  0
    1.6428   -4.3353    0.0000 H   0  0  0  0  0  0  0  0  0  0  0  0
    2.1461   -5.8751    0.0000 H   0  0  0  0  0  0  0  0  0  0  0  0
    4.8132   -5.0034    0.0000 H   0  0  0  0  0  0  0  0  0  0  0  0
    3.7313   -6.2092    0.0000 H   0  0  0  0  0  0  0  0  0  0  0  0
  1 14  1  0  0  0  0
  1 22  1  0  0  0  0
  2  4  2  0  0  0  0
  2  5  2  0  0  0  0
  2  9  1  0  0  0  0
  2 20  1  0  0  0  0
  3 15  1  0  0  0  0
  3 41  1  0  0  0  0
  6 12  1  0  0  0  0
  6 15  1  0  0  0  0
  6 32  1  0  0  0  0
  7 16  1  0  0  0  0
  7 22  2  0  0  0  0
  8 19  2  0  0  0  0
  8 21  1  0  0  0  0
  9 27  1  0  0  0  0
  9 42  1  0  0  0  0
 10 27  1  0  0  0  0
 10 30  2  0  0  0  0
 11 12  2  0  0  0  0
 11 13  1  0  0  0  0
 11 14  1  0  0  0  0
 12 17  1  0  0  0  0
 13 15  2  0  0  0  0
 13 19  1  0  0  0  0
 14 16  2  0  0  0  0
 16 18  1  0  0  0  0
 17 18  2  0  0  0  0
 17 33  1  0  0  0  0
 18 34  1  0  0  0  0
 19 35  1  0  0  0  0
 20 23  2  0  0  0  0
 20 24  1  0  0  0  0
 21 25  2  0  0  0  0
 21 26  1  0  0  0  0
 22 36  1  0  0  0  0
 23 25  1  0  0  0  0
 23 37  1  0  0  0  0
 24 26  2  0  0  0  0
 24 38  1  0  0  0  0
 25 39  1  0  0  0  0
 26 40  1  0  0  0  0
 27 28  2  0  0  0  0
 28 29  1  0  0  0  0
 28 43  1  0  0  0  0
 29 31  2  0  0  0  0
 29 44  1  0  0  0  0
 30 31  1  0  0  0  0
 30 45  1  0  0  0  0
 31 46  1  0  0  0  0
M  END
> <PUBCHEM_COMPOUND_CID>
3536

> <PUBCHEM_COMPOUND_CANONICALIZED>
1

> <PUBCHEM_CACTVS_COMPLEXITY>
753

> <PUBCHEM_CACTVS_HBOND_ACCEPTOR>
8

> <PUBCHEM_CACTVS_HBOND_DONOR>
3

> <PUBCHEM_CACTVS_ROTATABLE_BOND>
5

> <PUBCHEM_CACTVS_SUBSKEYS>
AAADccB7sABgAAAAAAAAAAAAAAAAAWLAAAA8YIAAAAAAAFgB/gAAHgQQSAAADAjB3gS99fLJkgqkAzZnZHDD8LlxKjgI2Tw8bJ2IJuLikZOEcAxk0BPI2Cew0OMOgASAQCAGAQAACQCAQAwCAAAAAAAAAA==

> <PUBCHEM_IUPAC_OPENEYE_NAME>
4-[(7-hydroxy-6H-pyrrolo[2,3-g][1,3]benzothiazol-8-yl)methyleneamino]-N-(2-pyridyl)benzenesulfonamide

> <PUBCHEM_IUPAC_CAS_NAME>
4-[(7-hydroxy-6H-pyrrolo[2,3-g][1,3]benzothiazol-8-yl)methylideneamino]-N-(2-pyridinyl)benzenesulfonamide

> <PUBCHEM_IUPAC_NAME>
4-[(7-hydroxy-6H-pyrrolo[2,3-g][1,3]benzothiazol-8-yl)methylideneamino]-N-pyridin-2-ylbenzenesulfonamide

> <PUBCHEM_IUPAC_SYSTEMATIC_NAME>
4-[(7-oxidanyl-6H-pyrrolo[2,3-g][1,3]benzothiazol-8-yl)methylideneamino]-N-pyridin-2-yl-benzenesulfonamide

> <PUBCHEM_IUPAC_TRADITIONAL_NAME>
4-[(7-hydroxy-6H-pyrrolo[2,3-g][1,3]benzothiazol-8-yl)methyleneamino]-N-(2-pyridyl)benzenesulfonamide

> <PUBCHEM_IUPAC_INCHI>
InChI=1S/C21H15N5O3S2/c27-21-15(19-16(25-21)8-9-17-20(19)30-12-24-17)11-23-13-4-6-14(7-5-13)31(28,29)26-18-3-1-2-10-22-18/h1-12,25,27H,(H,22,26)

> <PUBCHEM_IUPAC_INCHIKEY>
CDNIYBIKHDLGMT-UHFFFAOYSA-N

> <PUBCHEM_XLOGP3_AA>
3.6

> <PUBCHEM_EXACT_MASS>
449.061631

> <PUBCHEM_MOLECULAR_FORMULA>
C21H15N5O3S2

> <PUBCHEM_MOLECULAR_WEIGHT>
449.5055

> <PUBCHEM_OPENEYE_CAN_SMILES>
C1=CC=NC(=C1)NS(=O)(=O)C2=CC=C(C=C2)N=CC3=C(NC4=C3C5=C(C=C4)N=CS5)O

> <PUBCHEM_OPENEYE_ISO_SMILES>
C1=CC=NC(=C1)NS(=O)(=O)C2=CC=C(C=C2)N=CC3=C(NC4=C3C5=C(C=C4)N=CS5)O

> <PUBCHEM_CACTVS_TPSA>
157

> <PUBCHEM_MONOISOTOPIC_WEIGHT>
449.061631

> <PUBCHEM_TOTAL_CHARGE>
0

> <PUBCHEM_HEAVY_ATOM_COUNT>
31

> <PUBCHEM_ATOM_DEF_STEREO_COUNT>
0

> <PUBCHEM_ATOM_UDEF_STEREO_COUNT>
0

> <PUBCHEM_BOND_DEF_STEREO_COUNT>
0

> <PUBCHEM_BOND_UDEF_STEREO_COUNT>
0

> <PUBCHEM_ISOTOPIC_ATOM_COUNT>
0

> <PUBCHEM_COMPONENT_COUNT>
1

> <PUBCHEM_CACTVS_TAUTO_COUNT>
10

> <PUBCHEM_COORDINATE_TYPE>
1
5
255

> <PUBCHEM_BONDANNOTATIONS>
1  14  8
1  22  8
10  27  8
10  30  8
11  12  8
11  13  8
11  14  8
12  17  8
13  15  8
14  16  8
16  18  8
17  18  8
20  23  8
20  24  8
21  25  8
21  26  8
23  25  8
24  26  8
27  28  8
28  29  8
29  31  8
30  31  8
6  12  8
6  15  8
7  16  8
7  22  8

$$$$

