11188
  -OEChem-06261205223D

 25 24  0     1  0  0  0  0  0999 V2000
   -0.1117    0.1953    0.1597 O   0  0  0  0  0  0  0  0  0  0  0  0
    2.3386    1.2983   -0.7187 O   0  0  0  0  0  0  0  0  0  0  0  0
    4.7037    0.2704    0.2997 O   0  0  0  0  0  0  0  0  0  0  0  0
   -1.4294   -1.6341   -0.3301 O   0  0  0  0  0  0  0  0  0  0  0  0
    2.3057    0.2424    0.2442 C   0  0  1  0  0  0  0  0  0  0  0  0
    1.0632   -0.6060   -0.0021 C   0  0  0  0  0  0  0  0  0  0  0  0
   -2.4309    0.5251    0.1700 C   0  0  0  0  0  0  0  0  0  0  0  0
   -3.7945   -0.1227   -0.0574 C   0  0  0  0  0  0  0  0  0  0  0  0
    3.5798   -0.5771    0.0867 C   0  0  0  0  0  0  0  0  0  0  0  0
   -1.2978   -0.4540   -0.0358 C   0  0  0  0  0  0  0  0  0  0  0  0
   -4.9267    0.8623    0.1838 C   0  0  0  0  0  0  0  0  0  0  0  0
    2.2650    0.7236    1.2270 H   0  0  0  0  0  0  0  0  0  0  0  0
    1.0314   -1.4394    0.7094 H   0  0  0  0  0  0  0  0  0  0  0  0
    1.0721   -1.0008   -1.0254 H   0  0  0  0  0  0  0  0  0  0  0  0
   -2.3684    0.9068    1.1953 H   0  0  0  0  0  0  0  0  0  0  0  0
   -2.2966    1.3575   -0.5300 H   0  0  0  0  0  0  0  0  0  0  0  0
   -3.8593   -0.5071   -1.0824 H   0  0  0  0  0  0  0  0  0  0  0  0
   -3.9167   -0.9831    0.6114 H   0  0  0  0  0  0  0  0  0  0  0  0
    3.6698   -0.9992   -0.9197 H   0  0  0  0  0  0  0  0  0  0  0  0
    3.6204   -1.3918    0.8156 H   0  0  0  0  0  0  0  0  0  0  0  0
   -5.8933    0.3777    0.0142 H   0  0  0  0  0  0  0  0  0  0  0  0
   -4.9098    1.2355    1.2128 H   0  0  0  0  0  0  0  0  0  0  0  0
   -4.8524    1.7188   -0.4940 H   0  0  0  0  0  0  0  0  0  0  0  0
    2.3688    0.8968   -1.6040 H   0  0  0  0  0  0  0  0  0  0  0  0
    4.6518    0.9921   -0.3501 H   0  0  0  0  0  0  0  0  0  0  0  0
  1  6  1  0  0  0  0
  1 10  1  0  0  0  0
  2  5  1  0  0  0  0
  2 24  1  0  0  0  0
  3  9  1  0  0  0  0
  3 25  1  0  0  0  0
  4 10  2  0  0  0  0
  5  6  1  0  0  0  0
  5  9  1  0  0  0  0
  5 12  1  0  0  0  0
  6 13  1  0  0  0  0
  6 14  1  0  0  0  0
  7  8  1  0  0  0  0
  7 10  1  0  0  0  0
  7 15  1  0  0  0  0
  7 16  1  0  0  0  0
  8 11  1  0  0  0  0
  8 17  1  0  0  0  0
  8 18  1  0  0  0  0
  9 19  1  0  0  0  0
  9 20  1  0  0  0  0
 11 21  1  0  0  0  0
 11 22  1  0  0  0  0
 11 23  1  0  0  0  0
M  END
> <PUBCHEM_COMPOUND_CID>
11188

> <PUBCHEM_CONFORMER_RMSD>
0.8

> <PUBCHEM_CONFORMER_DIVERSEORDER>
1
704
205
560
579
489
656
418
40
45
210
298
270
548
211
684
536
258
612
138
508
21
414
264
30
639
68
635
34
157
3
551
277
13
546
628
558
338
330
400
479
79
194
9
47
31
666
592
658
574
4
57
247
697
482
183
694
137
609
653
155
499
7
308
255
144
64
293
616
25
366
52
576
115
514
72
11
622
17
8
617
423
456
5
389
326
20
24
606
2
110
568
48
19
85
444
367
197
316
141
374
636
318
439
171
600
98
120
113
142
60
123
112
571
459
412
232
94
449
544
43
37
207

> <PUBCHEM_MMFF94_PARTIAL_CHARGES>
11
1 -0.43
10 0.66
2 -0.68
24 0.4
25 0.4
3 -0.68
4 -0.57
5 0.28
6 0.28
7 0.06
9 0.28

> <PUBCHEM_EFFECTIVE_ROTOR_COUNT>
6

> <PUBCHEM_PHARMACOPHORE_FEATURES>
6
1 11 hydrophobe
1 2 acceptor
1 2 donor
1 3 acceptor
1 3 donor
1 4 acceptor

> <PUBCHEM_HEAVY_ATOM_COUNT>
11

> <PUBCHEM_ATOM_DEF_STEREO_COUNT>
0

> <PUBCHEM_ATOM_UDEF_STEREO_COUNT>
1

> <PUBCHEM_BOND_DEF_STEREO_COUNT>
0

> <PUBCHEM_BOND_UDEF_STEREO_COUNT>
0

> <PUBCHEM_ISOTOPIC_ATOM_COUNT>
0

> <PUBCHEM_COMPONENT_COUNT>
1

> <PUBCHEM_CACTVS_TAUTO_COUNT>
1

> <PUBCHEM_CONFORMER_ID>
00002BB400000001

> <PUBCHEM_MMFF94_ENERGY>
9.9571

> <PUBCHEM_FEATURE_SELFOVERLAP>
30.455

> <PUBCHEM_SHAPE_FINGERPRINT>
11062470 55 16587744239402255098
114248 4 14779271912478531161
12932764 1 15841004268883872986
13380535 76 18334011700781322215
14123238 8 18410857659151417344
14252887 29 12103563125523738648
14325111 11 18409448094414882755
17834076 25 17894351081778429928
18342897 14 18413389847352257576
187816 3 16805324401132500491
200 152 8430314632310331083
20279233 1 16008742490083870790
20645477 70 15936680571351479900
20719005 15 18410856555666679643
21119208 17 18410292518917642920
21293036 1 14273456980950551407
22485316 2 8790882965433703065
23402539 116 18040443204440395669
23402655 69 17822014258952773709
3248919 1 14996552941946233186
366044 4 18334577953891459663
42788 4 18335139803905628105
6430166 295 18411420635212421477

> <PUBCHEM_SHAPE_MULTIPOLES>
202.9
9.36
1.1
0.65
1.2
0.14
-0.01
-2.16
0.68
0.14
-0.14
-0.06
-0.05
-0.27

> <PUBCHEM_SHAPE_SELFOVERLAP>
374.437

> <PUBCHEM_SHAPE_VOLUME>
128

> <PUBCHEM_COORDINATE_TYPE>
2
5
10

$$$$

