5525
  -OEChem-06261200432D

 65 67  0     1  0  0  0  0  0999 V2000
    8.5854   -1.3305    0.0000 O   0  0  0  0  0  0  0  0  0  0  0  0
    9.3798   -4.1580    0.0000 O   0  0  0  0  0  0  0  0  0  0  0  0
    9.3798   -2.4260    0.0000 O   0  0  0  0  0  0  0  0  0  0  0  0
    6.2247    2.5972    0.0000 O   0  0  0  0  0  0  0  0  0  0  0  0
    7.8710    2.0591    0.0000 O   0  0  0  0  0  0  0  0  0  0  0  0
    7.2962   -2.4873    0.0000 N   0  0  0  0  0  0  0  0  0  0  0  0
    7.2497    0.1581    0.0000 N   0  0  0  0  0  0  0  0  0  0  0  0
    6.3500   -3.7920    0.0000 C   0  0  3  0  0  0  0  0  0  0  0  0
    6.3500   -2.7920    0.0000 C   0  0  3  0  0  0  0  0  0  0  0  0
    7.2962   -4.0967    0.0000 C   0  0  0  0  0  0  0  0  0  0  0  0
    7.8798   -3.2920    0.0000 C   0  0  3  0  0  0  0  0  0  0  0  0
    5.4840   -4.2920    0.0000 C   0  0  0  0  0  0  0  0  0  0  0  0
    5.4840   -2.2920    0.0000 C   0  0  0  0  0  0  0  0  0  0  0  0
    4.6180   -3.7920    0.0000 C   0  0  0  0  0  0  0  0  0  0  0  0
    4.6180   -2.7920    0.0000 C   0  0  0  0  0  0  0  0  0  0  0  0
    7.6069   -1.5368    0.0000 C   0  0  0  0  0  0  0  0  0  0  0  0
    8.8798   -3.2920    0.0000 C   0  0  0  0  0  0  0  0  0  0  0  0
    6.9390   -0.7925    0.0000 C   0  0  3  0  0  0  0  0  0  0  0  0
    5.9605   -0.9987    0.0000 C   0  0  0  0  0  0  0  0  0  0  0  0
    6.5819    0.9024    0.0000 C   0  0  3  0  0  0  0  0  0  0  0  0
    5.6034    0.6961    0.0000 C   0  0  0  0  0  0  0  0  0  0  0  0
    6.8925    1.8529    0.0000 C   0  0  0  0  0  0  0  0  0  0  0  0
    4.9355    1.4404    0.0000 C   0  0  0  0  0  0  0  0  0  0  0  0
    3.9570    1.2342    0.0000 C   0  0  0  0  0  0  0  0  0  0  0  0
    6.5354    3.5477    0.0000 C   0  0  0  0  0  0  0  0  0  0  0  0
    3.6464    0.2837    0.0000 C   0  0  0  0  0  0  0  0  0  0  0  0
    3.2892    1.9785    0.0000 C   0  0  0  0  0  0  0  0  0  0  0  0
    2.6678    0.0775    0.0000 C   0  0  0  0  0  0  0  0  0  0  0  0
    2.3107    1.7723    0.0000 C   0  0  0  0  0  0  0  0  0  0  0  0
    5.8675    4.2920    0.0000 C   0  0  0  0  0  0  0  0  0  0  0  0
    2.0000    0.8218    0.0000 C   0  0  0  0  0  0  0  0  0  0  0  0
    6.4156   -4.4085    0.0000 H   0  0  0  0  0  0  0  0  0  0  0  0
    6.4156   -2.1755    0.0000 H   0  0  0  0  0  0  0  0  0  0  0  0
    7.0452   -4.6636    0.0000 H   0  0  0  0  0  0  0  0  0  0  0  0
    7.8336   -4.4060    0.0000 H   0  0  0  0  0  0  0  0  0  0  0  0
    8.1616   -2.7397    0.0000 H   0  0  0  0  0  0  0  0  0  0  0  0
    5.0855   -4.7670    0.0000 H   0  0  0  0  0  0  0  0  0  0  0  0
    5.8825   -4.7670    0.0000 H   0  0  0  0  0  0  0  0  0  0  0  0
    5.8825   -1.8171    0.0000 H   0  0  0  0  0  0  0  0  0  0  0  0
    5.0855   -1.8171    0.0000 H   0  0  0  0  0  0  0  0  0  0  0  0
    4.0074   -3.6844    0.0000 H   0  0  0  0  0  0  0  0  0  0  0  0
    4.4059   -4.3746    0.0000 H   0  0  0  0  0  0  0  0  0  0  0  0
    4.4059   -2.2094    0.0000 H   0  0  0  0  0  0  0  0  0  0  0  0
    4.0074   -2.8997    0.0000 H   0  0  0  0  0  0  0  0  0  0  0  0
    7.5457   -0.6646    0.0000 H   0  0  0  0  0  0  0  0  0  0  0  0
    7.8564    0.2859    0.0000 H   0  0  0  0  0  0  0  0  0  0  0  0
    5.8327   -0.3920    0.0000 H   0  0  0  0  0  0  0  0  0  0  0  0
    5.3539   -1.1265    0.0000 H   0  0  0  0  0  0  0  0  0  0  0  0
    6.0884   -1.6054    0.0000 H   0  0  0  0  0  0  0  0  0  0  0  0
    9.9998   -4.1580    0.0000 H   0  0  0  0  0  0  0  0  0  0  0  0
    6.3893    0.3130    0.0000 H   0  0  0  0  0  0  0  0  0  0  0  0
    5.0770    0.3685    0.0000 H   0  0  0  0  0  0  0  0  0  0  0  0
    5.8346    0.1209    0.0000 H   0  0  0  0  0  0  0  0  0  0  0  0
    5.4619    1.7681    0.0000 H   0  0  0  0  0  0  0  0  0  0  0  0
    4.7043    2.0157    0.0000 H   0  0  0  0  0  0  0  0  0  0  0  0
    4.0604   -0.1778    0.0000 H   0  0  0  0  0  0  0  0  0  0  0  0
    3.4818    2.5678    0.0000 H   0  0  0  0  0  0  0  0  0  0  0  0
    7.0823    3.2557    0.0000 H   0  0  0  0  0  0  0  0  0  0  0  0
    6.9179    4.0356    0.0000 H   0  0  0  0  0  0  0  0  0  0  0  0
    2.4752   -0.5118    0.0000 H   0  0  0  0  0  0  0  0  0  0  0  0
    1.8966    2.2338    0.0000 H   0  0  0  0  0  0  0  0  0  0  0  0
    6.3290    4.7061    0.0000 H   0  0  0  0  0  0  0  0  0  0  0  0
    5.4534    4.7535    0.0000 H   0  0  0  0  0  0  0  0  0  0  0  0
    5.4060    3.8780    0.0000 H   0  0  0  0  0  0  0  0  0  0  0  0
    1.3933    0.6939    0.0000 H   0  0  0  0  0  0  0  0  0  0  0  0
  1 16  2  0  0  0  0
  2 17  1  0  0  0  0
  2 50  1  0  0  0  0
  3 17  2  0  0  0  0
  4 22  1  0  0  0  0
  4 25  1  0  0  0  0
  5 22  2  0  0  0  0
  6  9  1  0  0  0  0
  6 11  1  0  0  0  0
  6 16  1  0  0  0  0
  7 18  1  0  0  0  0
  7 20  1  0  0  0  0
  7 46  1  0  0  0  0
  8  9  1  0  0  0  0
  8 10  1  0  0  0  0
  8 12  1  0  0  0  0
  8 32  1  0  0  0  0
  9 13  1  0  0  0  0
  9 33  1  0  0  0  0
 10 11  1  0  0  0  0
 10 34  1  0  0  0  0
 10 35  1  0  0  0  0
 11 17  1  0  0  0  0
 11 36  1  0  0  0  0
 12 14  1  0  0  0  0
 12 37  1  0  0  0  0
 12 38  1  0  0  0  0
 13 15  1  0  0  0  0
 13 39  1  0  0  0  0
 13 40  1  0  0  0  0
 14 15  1  0  0  0  0
 14 41  1  0  0  0  0
 14 42  1  0  0  0  0
 15 43  1  0  0  0  0
 15 44  1  0  0  0  0
 16 18  1  0  0  0  0
 18 19  1  0  0  0  0
 18 45  1  0  0  0  0
 19 47  1  0  0  0  0
 19 48  1  0  0  0  0
 19 49  1  0  0  0  0
 20 21  1  0  0  0  0
 20 22  1  0  0  0  0
 20 51  1  0  0  0  0
 21 23  1  0  0  0  0
 21 52  1  0  0  0  0
 21 53  1  0  0  0  0
 23 24  1  0  0  0  0
 23 54  1  0  0  0  0
 23 55  1  0  0  0  0
 24 26  2  0  0  0  0
 24 27  1  0  0  0  0
 25 30  1  0  0  0  0
 25 58  1  0  0  0  0
 25 59  1  0  0  0  0
 26 28  1  0  0  0  0
 26 56  1  0  0  0  0
 27 29  2  0  0  0  0
 27 57  1  0  0  0  0
 28 31  2  0  0  0  0
 28 60  1  0  0  0  0
 29 31  1  0  0  0  0
 29 61  1  0  0  0  0
 30 62  1  0  0  0  0
 30 63  1  0  0  0  0
 30 64  1  0  0  0  0
 31 65  1  0  0  0  0
M  END
> <PUBCHEM_COMPOUND_CID>
5525

> <PUBCHEM_COMPOUND_CANONICALIZED>
1

> <PUBCHEM_CACTVS_COMPLEXITY>
634

> <PUBCHEM_CACTVS_HBOND_ACCEPTOR>
6

> <PUBCHEM_CACTVS_HBOND_DONOR>
2

> <PUBCHEM_CACTVS_ROTATABLE_BOND>
10

> <PUBCHEM_CACTVS_SUBSKEYS>
AAADcfB7OAAAAAAAAAAAAAAAAAAAAWAAAAAwYAAAAAAAAFgBAAAAHgAQCAAADSjhmAYyCIPABgCIAiHSGAACAAAgAAAIiIGIAIgKYDKAkTCXYAAklgCYiAeY2bOeAAAAAAAAAAAAAAAAAAQAAAAAAAAAAA==

> <PUBCHEM_IUPAC_OPENEYE_NAME>
1-[2-[(1-ethoxycarbonyl-3-phenyl-propyl)amino]propanoyl]-2,3,3a,4,5,6,7,7a-octahydroindole-2-carboxylic acid

> <PUBCHEM_IUPAC_CAS_NAME>
1-[2-[(1-ethoxy-1-oxo-4-phenylbutan-2-yl)amino]-1-oxopropyl]-2,3,3a,4,5,6,7,7a-octahydroindole-2-carboxylic acid

> <PUBCHEM_IUPAC_NAME>
1-[2-[(1-ethoxy-1-oxo-4-phenylbutan-2-yl)amino]propanoyl]-2,3,3a,4,5,6,7,7a-octahydroindole-2-carboxylic acid

> <PUBCHEM_IUPAC_SYSTEMATIC_NAME>
1-[2-[(1-ethoxy-1-oxidanylidene-4-phenyl-butan-2-yl)amino]propanoyl]-2,3,3a,4,5,6,7,7a-octahydroindole-2-carboxylic acid

> <PUBCHEM_IUPAC_TRADITIONAL_NAME>
1-[2-[(1-carbethoxy-3-phenyl-propyl)amino]propanoyl]-2,3,3a,4,5,6,7,7a-octahydroindole-2-carboxylic acid

> <PUBCHEM_IUPAC_INCHI>
InChI=1S/C24H34N2O5/c1-3-31-24(30)19(14-13-17-9-5-4-6-10-17)25-16(2)22(27)26-20-12-8-7-11-18(20)15-21(26)23(28)29/h4-6,9-10,16,18-21,25H,3,7-8,11-15H2,1-2H3,(H,28,29)

> <PUBCHEM_IUPAC_INCHIKEY>
VXFJYXUZANRPDJ-UHFFFAOYSA-N

> <PUBCHEM_XLOGP3>
2

> <PUBCHEM_EXACT_MASS>
430.246772

> <PUBCHEM_MOLECULAR_FORMULA>
C24H34N2O5

> <PUBCHEM_MOLECULAR_WEIGHT>
430.53716

> <PUBCHEM_OPENEYE_CAN_SMILES>
CCOC(=O)C(CCC1=CC=CC=C1)NC(C)C(=O)N2C3CCCCC3CC2C(=O)O

> <PUBCHEM_OPENEYE_ISO_SMILES>
CCOC(=O)C(CCC1=CC=CC=C1)NC(C)C(=O)N2C3CCCCC3CC2C(=O)O

> <PUBCHEM_CACTVS_TPSA>
95.9

> <PUBCHEM_MONOISOTOPIC_WEIGHT>
430.246772

> <PUBCHEM_TOTAL_CHARGE>
0

> <PUBCHEM_HEAVY_ATOM_COUNT>
31

> <PUBCHEM_ATOM_DEF_STEREO_COUNT>
0

> <PUBCHEM_ATOM_UDEF_STEREO_COUNT>
5

> <PUBCHEM_BOND_DEF_STEREO_COUNT>
0

> <PUBCHEM_BOND_UDEF_STEREO_COUNT>
0

> <PUBCHEM_ISOTOPIC_ATOM_COUNT>
0

> <PUBCHEM_COMPONENT_COUNT>
1

> <PUBCHEM_CACTVS_TAUTO_COUNT>
1

> <PUBCHEM_COORDINATE_TYPE>
1
5
255

> <PUBCHEM_BONDANNOTATIONS>
11  17  3
18  19  3
20  21  3
24  26  8
24  27  8
26  28  8
27  29  8
28  31  8
29  31  8
8  12  3
9  13  3

$$$$

