13964
  -OEChem-06241222412D

 46 47  0     1  0  0  0  0  0999 V2000
    3.2809    0.0000    0.0000 Br  0  5  0  0  0  0  0  0  0  0  0  0
    0.5939    7.7078    0.0000 S   0  0  0  0  0  0  0  0  0  0  0  0
    2.9030    6.9860    0.0000 O   0  0  0  0  0  0  0  0  0  0  0  0
    0.4030    6.1200    0.0000 O   0  0  0  0  0  0  0  0  0  0  0  0
    2.9030    5.2540    0.0000 O   0  0  0  0  0  0  0  0  0  0  0  0
    5.4418    7.4860    0.0000 N   0  3  0  0  0  0  0  0  0  0  0  0
    4.4908    7.7950    0.0000 C   0  0  0  0  0  0  0  0  0  0  0  0
    5.4418    6.4860    0.0000 C   0  0  0  0  0  0  0  0  0  0  0  0
    3.9030    6.9860    0.0000 C   0  0  3  0  0  0  0  0  0  0  0  0
    4.4908    6.1770    0.0000 C   0  0  0  0  0  0  0  0  0  0  0  0
    6.4418    7.4860    0.0000 C   0  0  0  0  0  0  0  0  0  0  0  0
    5.7508    8.4371    0.0000 C   0  0  0  0  0  0  0  0  0  0  0  0
    2.4030    6.1200    0.0000 C   0  0  0  0  0  0  0  0  0  0  0  0
    1.4030    6.1200    0.0000 C   0  0  3  0  0  0  0  0  0  0  0  0
    1.4030    5.1200    0.0000 C   0  0  0  0  0  0  0  0  0  0  0  0
    1.4030    7.1200    0.0000 C   0  0  0  0  0  0  0  0  0  0  0  0
    0.5369    4.6200    0.0000 C   0  0  0  0  0  0  0  0  0  0  0  0
    2.2690    4.6200    0.0000 C   0  0  0  0  0  0  0  0  0  0  0  0
    2.2120    7.7078    0.0000 C   0  0  0  0  0  0  0  0  0  0  0  0
    1.9030    8.6588    0.0000 C   0  0  0  0  0  0  0  0  0  0  0  0
    0.5369    3.6200    0.0000 C   0  0  0  0  0  0  0  0  0  0  0  0
    2.2690    3.6200    0.0000 C   0  0  0  0  0  0  0  0  0  0  0  0
    0.9030    8.6588    0.0000 C   0  0  0  0  0  0  0  0  0  0  0  0
    1.4030    3.1200    0.0000 C   0  0  0  0  0  0  0  0  0  0  0  0
    4.7429    8.3614    0.0000 H   0  0  0  0  0  0  0  0  0  0  0  0
    3.9538    8.1050    0.0000 H   0  0  0  0  0  0  0  0  0  0  0  0
    5.5707    5.8796    0.0000 H   0  0  0  0  0  0  0  0  0  0  0  0
    6.0584    6.5508    0.0000 H   0  0  0  0  0  0  0  0  0  0  0  0
    3.5171    6.2287    0.0000 H   0  0  0  0  0  0  0  0  0  0  0  0
    3.9538    5.8670    0.0000 H   0  0  0  0  0  0  0  0  0  0  0  0
    4.7429    5.6106    0.0000 H   0  0  0  0  0  0  0  0  0  0  0  0
    6.4418    6.8660    0.0000 H   0  0  0  0  0  0  0  0  0  0  0  0
    7.0618    7.4860    0.0000 H   0  0  0  0  0  0  0  0  0  0  0  0
    6.4418    8.1060    0.0000 H   0  0  0  0  0  0  0  0  0  0  0  0
    6.3405    8.2455    0.0000 H   0  0  0  0  0  0  0  0  0  0  0  0
    5.9424    9.0267    0.0000 H   0  0  0  0  0  0  0  0  0  0  0  0
    5.1612    8.6287    0.0000 H   0  0  0  0  0  0  0  0  0  0  0  0
    0.0930    6.6569    0.0000 H   0  0  0  0  0  0  0  0  0  0  0  0
    0.0000    4.9300    0.0000 H   0  0  0  0  0  0  0  0  0  0  0  0
    2.8059    4.9300    0.0000 H   0  0  0  0  0  0  0  0  0  0  0  0
    2.8016    7.5162    0.0000 H   0  0  0  0  0  0  0  0  0  0  0  0
    2.2674    9.1604    0.0000 H   0  0  0  0  0  0  0  0  0  0  0  0
    0.0000    3.3100    0.0000 H   0  0  0  0  0  0  0  0  0  0  0  0
    2.8059    3.3100    0.0000 H   0  0  0  0  0  0  0  0  0  0  0  0
    0.5385    9.1604    0.0000 H   0  0  0  0  0  0  0  0  0  0  0  0
    1.4030    2.5000    0.0000 H   0  0  0  0  0  0  0  0  0  0  0  0
  2 16  1  0  0  0  0
  2 23  1  0  0  0  0
  3  9  1  0  0  0  0
  3 13  1  0  0  0  0
  4 14  1  0  0  0  0
  4 38  1  0  0  0  0
  5 13  2  0  0  0  0
  6  7  1  0  0  0  0
  6  8  1  0  0  0  0
  6 11  1  0  0  0  0
  6 12  1  0  0  0  0
  7  9  1  0  0  0  0
  7 25  1  0  0  0  0
  7 26  1  0  0  0  0
  8 10  1  0  0  0  0
  8 27  1  0  0  0  0
  8 28  1  0  0  0  0
  9 10  1  0  0  0  0
  9 29  1  0  0  0  0
 10 30  1  0  0  0  0
 10 31  1  0  0  0  0
 11 32  1  0  0  0  0
 11 33  1  0  0  0  0
 11 34  1  0  0  0  0
 12 35  1  0  0  0  0
 12 36  1  0  0  0  0
 12 37  1  0  0  0  0
 13 14  1  0  0  0  0
 14 15  1  0  0  0  0
 14 16  1  0  0  0  0
 15 17  2  0  0  0  0
 15 18  1  0  0  0  0
 16 19  2  0  0  0  0
 17 21  1  0  0  0  0
 17 39  1  0  0  0  0
 18 22  2  0  0  0  0
 18 40  1  0  0  0  0
 19 20  1  0  0  0  0
 19 41  1  0  0  0  0
 20 23  2  0  0  0  0
 20 42  1  0  0  0  0
 21 24  2  0  0  0  0
 21 43  1  0  0  0  0
 22 24  1  0  0  0  0
 22 44  1  0  0  0  0
 23 45  1  0  0  0  0
 24 46  1  0  0  0  0
M  CHG  2   1  -1   6   1
M  END
> <PUBCHEM_COMPOUND_CID>
13964

> <PUBCHEM_COMPOUND_CANONICALIZED>
1

> <PUBCHEM_CACTVS_COMPLEXITY>
436

> <PUBCHEM_CACTVS_HBOND_ACCEPTOR>
5

> <PUBCHEM_CACTVS_HBOND_DONOR>
1

> <PUBCHEM_CACTVS_ROTATABLE_BOND>
5

> <PUBCHEM_CACTVS_SUBSKEYS>
AAADceB6MABAEAAAAAAAAAAAAAAAAWJAAAAwAAAAAAAAAAABwAAAHgQACAAADFTl2AayCYMABgiMAiDSCAIDAIAgCBBIiBlICIgLJjKglRCHcAAmwAG7mAeIyOCOgAAAAAAAAAAAAAAAAAAAAAAAAAAAAA==

> <PUBCHEM_IUPAC_OPENEYE_NAME>
(1,1-dimethylpyrrolidin-1-ium-3-yl) 2-hydroxy-2-phenyl-2-(2-thienyl)acetate bromide

> <PUBCHEM_IUPAC_CAS_NAME>
2-hydroxy-2-phenyl-2-thiophen-2-ylacetic acid (1,1-dimethyl-3-pyrrolidin-1-iumyl) ester bromide

> <PUBCHEM_IUPAC_NAME>
(1,1-dimethylpyrrolidin-1-ium-3-yl) 2-hydroxy-2-phenyl-2-thiophen-2-ylacetate bromide

> <PUBCHEM_IUPAC_SYSTEMATIC_NAME>
(1,1-dimethylpyrrolidin-1-ium-3-yl) 2-oxidanyl-2-phenyl-2-thiophen-2-yl-ethanoate bromide

> <PUBCHEM_IUPAC_TRADITIONAL_NAME>
2-hydroxy-2-phenyl-2-(2-thienyl)acetic acid (1,1-dimethylpyrrolidin-1-ium-3-yl) ester bromide

> <PUBCHEM_IUPAC_INCHI>
InChI=1S/C18H22NO3S.BrH/c1-19(2)11-10-15(13-19)22-17(20)18(21,16-9-6-12-23-16)14-7-4-3-5-8-14;/h3-9,12,15,21H,10-11,13H2,1-2H3;1H/q+1;/p-1

> <PUBCHEM_IUPAC_INCHIKEY>
SHPIBZXFYWMQBR-UHFFFAOYSA-M

> <PUBCHEM_EXACT_MASS>
411.050377

> <PUBCHEM_MOLECULAR_FORMULA>
C18H22BrNO3S

> <PUBCHEM_MOLECULAR_WEIGHT>
412.34118

> <PUBCHEM_OPENEYE_CAN_SMILES>
C[N+]1(CCC(C1)OC(=O)C(C2=CC=CC=C2)(C3=CC=CS3)O)C.[Br-]

> <PUBCHEM_OPENEYE_ISO_SMILES>
C[N+]1(CCC(C1)OC(=O)C(C2=CC=CC=C2)(C3=CC=CS3)O)C.[Br-]

> <PUBCHEM_CACTVS_TPSA>
74.8

> <PUBCHEM_MONOISOTOPIC_WEIGHT>
411.050377

> <PUBCHEM_TOTAL_CHARGE>
0

> <PUBCHEM_HEAVY_ATOM_COUNT>
24

> <PUBCHEM_ATOM_DEF_STEREO_COUNT>
0

> <PUBCHEM_ATOM_UDEF_STEREO_COUNT>
2

> <PUBCHEM_BOND_DEF_STEREO_COUNT>
0

> <PUBCHEM_BOND_UDEF_STEREO_COUNT>
0

> <PUBCHEM_ISOTOPIC_ATOM_COUNT>
0

> <PUBCHEM_COMPONENT_COUNT>
2

> <PUBCHEM_CACTVS_TAUTO_COUNT>
1

> <PUBCHEM_COORDINATE_TYPE>
1
5
255

> <PUBCHEM_BONDANNOTATIONS>
14  13  3
15  17  8
15  18  8
16  19  8
17  21  8
18  22  8
19  20  8
2  16  8
2  23  8
20  23  8
21  24  8
22  24  8
9  29  3

$$$$

