8676
  -OEChem-06261203003D

 29 30  0     0  0  0  0  0  0999 V2000
    5.5933   -1.0817    0.2800 O   0  0  0  0  0  0  0  0  0  0  0  0
   -5.5522    1.0819    0.2832 O   0  5  0  0  0  0  0  0  0  0  0  0
   -5.5642   -1.0343   -0.3006 O   0  0  0  0  0  0  0  0  0  0  0  0
   -4.9500    0.0196   -0.0062 N   0  3  0  0  0  0  0  0  0  0  0  0
    0.7063   -0.0178    0.0054 C   0  0  0  0  0  0  0  0  0  0  0  0
   -0.7407   -0.0084    0.0043 C   0  0  0  0  0  0  0  0  0  0  0  0
    1.4120    1.1465   -0.2979 C   0  0  0  0  0  0  0  0  0  0  0  0
    1.3953   -1.1917    0.3103 C   0  0  0  0  0  0  0  0  0  0  0  0
    3.4960   -0.0369    0.0086 C   0  0  0  0  0  0  0  0  0  0  0  0
   -1.4307    1.1604    0.3252 C   0  0  0  0  0  0  0  0  0  0  0  0
   -1.4452   -1.1680   -0.3191 C   0  0  0  0  0  0  0  0  0  0  0  0
    2.8068    1.1369   -0.2964 C   0  0  0  0  0  0  0  0  0  0  0  0
    2.7902   -1.2013    0.3120 C   0  0  0  0  0  0  0  0  0  0  0  0
   -3.5302    0.0102   -0.0007 C   0  0  0  0  0  0  0  0  0  0  0  0
   -2.8255    1.1696    0.3228 C   0  0  0  0  0  0  0  0  0  0  0  0
   -2.8400   -1.1588   -0.3217 C   0  0  0  0  0  0  0  0  0  0  0  0
    4.9502   -0.0475    0.0107 C   0  0  0  0  0  0  0  0  0  0  0  0
    5.7287    1.2214   -0.3199 C   0  0  0  0  0  0  0  0  0  0  0  0
    0.9185    2.0752   -0.5713 H   0  0  0  0  0  0  0  0  0  0  0  0
    0.8890   -2.1137    0.5828 H   0  0  0  0  0  0  0  0  0  0  0  0
   -0.9252    2.0782    0.6129 H   0  0  0  0  0  0  0  0  0  0  0  0
   -0.9509   -2.0922   -0.6057 H   0  0  0  0  0  0  0  0  0  0  0  0
    3.3170    2.0623   -0.5445 H   0  0  0  0  0  0  0  0  0  0  0  0
    3.3049   -2.1261    0.5593 H   0  0  0  0  0  0  0  0  0  0  0  0
   -3.3304    2.0963    0.5840 H   0  0  0  0  0  0  0  0  0  0  0  0
   -3.3560   -2.0785   -0.5857 H   0  0  0  0  0  0  0  0  0  0  0  0
    5.5013    2.0050    0.4075 H   0  0  0  0  0  0  0  0  0  0  0  0
    5.5035    1.5486   -1.3382 H   0  0  0  0  0  0  0  0  0  0  0  0
    6.8010    1.0083   -0.2628 H   0  0  0  0  0  0  0  0  0  0  0  0
  1 17  2  0  0  0  0
  2  4  1  0  0  0  0
  3  4  2  0  0  0  0
  4 14  1  0  0  0  0
  5  6  1  0  0  0  0
  5  7  2  0  0  0  0
  5  8  1  0  0  0  0
  6 10  2  0  0  0  0
  6 11  1  0  0  0  0
  7 12  1  0  0  0  0
  7 19  1  0  0  0  0
  8 13  2  0  0  0  0
  8 20  1  0  0  0  0
  9 12  2  0  0  0  0
  9 13  1  0  0  0  0
  9 17  1  0  0  0  0
 10 15  1  0  0  0  0
 10 21  1  0  0  0  0
 11 16  2  0  0  0  0
 11 22  1  0  0  0  0
 12 23  1  0  0  0  0
 13 24  1  0  0  0  0
 14 15  2  0  0  0  0
 14 16  1  0  0  0  0
 15 25  1  0  0  0  0
 16 26  1  0  0  0  0
 17 18  1  0  0  0  0
 18 27  1  0  0  0  0
 18 28  1  0  0  0  0
 18 29  1  0  0  0  0
M  CHG  2   2  -1   4   1
M  END
> <PUBCHEM_COMPOUND_CID>
8676

> <PUBCHEM_CONFORMER_RMSD>
0.6

> <PUBCHEM_CONFORMER_DIVERSEORDER>
1
2

> <PUBCHEM_MMFF94_PARTIAL_CHARGES>
24
1 -0.57
10 -0.15
11 -0.15
12 -0.15
13 -0.15
14 0.13
15 -0.15
16 -0.15
17 0.42
18 0.06
19 0.15
2 -0.52
20 0.15
21 0.15
22 0.15
23 0.15
24 0.15
25 0.15
26 0.15
3 -0.52
4 0.91
7 -0.15
8 -0.15
9 0.09

> <PUBCHEM_EFFECTIVE_ROTOR_COUNT>
3

> <PUBCHEM_PHARMACOPHORE_FEATURES>
6
1 1 acceptor
1 2 acceptor
1 2 anion
1 3 acceptor
6 5 7 8 9 12 13 rings
6 6 10 11 14 15 16 rings

> <PUBCHEM_HEAVY_ATOM_COUNT>
18

> <PUBCHEM_ATOM_DEF_STEREO_COUNT>
0

> <PUBCHEM_ATOM_UDEF_STEREO_COUNT>
0

> <PUBCHEM_BOND_DEF_STEREO_COUNT>
0

> <PUBCHEM_BOND_UDEF_STEREO_COUNT>
0

> <PUBCHEM_ISOTOPIC_ATOM_COUNT>
0

> <PUBCHEM_COMPONENT_COUNT>
1

> <PUBCHEM_CACTVS_TAUTO_COUNT>
2

> <PUBCHEM_CONFORMER_ID>
000021E400000001

> <PUBCHEM_MMFF94_ENERGY>
62.2258

> <PUBCHEM_FEATURE_SELFOVERLAP>
30.528

> <PUBCHEM_SHAPE_FINGERPRINT>
10968037 39 18410292493248098501
11401426 45 18411983542210752136
12107183 9 17689998263862983896
12236239 1 18410573989446418438
13288520 33 18333449850370624893
13533116 47 17822290232250724358
13862211 1 18410577287997385862
15048467 5 18411136935115720788
15196674 1 18410855455833194498
15242433 33 18410012139163198830
17834072 33 18408042892494566100
18522853 276 18408322189833420704
200 152 18335140882105930177
20279233 1 15697995258087756778
20645477 70 18337672022699019950
21267235 1 18410567392376853154
2297311 6 17676758829852818684
23402539 116 18113905961548639069
23402655 69 18410295825937089349
23557571 272 17313096484168282216
23559900 14 18261399892631952024
26918003 58 17988922262747484515
29717793 49 18186800314063190868
300161 21 18411143536480188412
3004659 81 18412822521787212054
34797466 226 17168136794438523228
350125 39 18410292518812829969
3545911 37 18410573985156745390
4214541 1 18410293631525428973
42788 4 18410575088968595716
4340502 62 16630522946867879338
4463277 17 18410855460149527148
474 4 17988920016622396556
5104073 3 18410855417215419522
542803 24 18410856559655646316
7495541 125 17313391071547915074

> <PUBCHEM_SHAPE_MULTIPOLES>
347.84
12.87
1.47
0.66
0.32
0
0
0.67
0.2
-0.16
-0.01
-0.04
0
-0.71

> <PUBCHEM_SHAPE_SELFOVERLAP>
755.87

> <PUBCHEM_SHAPE_VOLUME>
192

> <PUBCHEM_COORDINATE_TYPE>
2
5
10

$$$$

