11629
  -OEChem-06261205553D

 25 24  0     0  0  0  0  0  0999 V2000
   -5.3904    0.5409   -0.0080 F   0  0  0  0  0  0  0  0  0  0  0  0
    4.6791    1.1328   -0.0264 O   0  0  0  0  0  0  0  0  0  0  0  0
   -0.5343    0.2756    0.0255 C   0  0  0  0  0  0  0  0  0  0  0  0
    0.6744   -0.6632    0.0021 C   0  0  0  0  0  0  0  0  0  0  0  0
   -1.8467   -0.5107   -0.0163 C   0  0  0  0  0  0  0  0  0  0  0  0
    2.0203    0.0720    0.0206 C   0  0  0  0  0  0  0  0  0  0  0  0
   -3.0548    0.4213    0.0399 C   0  0  0  0  0  0  0  0  0  0  0  0
    3.2498   -0.8330    0.0148 C   0  0  0  0  0  0  0  0  0  0  0  0
   -4.3613   -0.3478   -0.0373 C   0  0  0  0  0  0  0  0  0  0  0  0
    4.5639   -0.0879   -0.0150 C   0  0  0  0  0  0  0  0  0  0  0  0
   -0.5003    0.8914    0.9323 H   0  0  0  0  0  0  0  0  0  0  0  0
   -0.4856    0.9578   -0.8318 H   0  0  0  0  0  0  0  0  0  0  0  0
    0.6274   -1.2935   -0.8946 H   0  0  0  0  0  0  0  0  0  0  0  0
    0.6261   -1.3375    0.8661 H   0  0  0  0  0  0  0  0  0  0  0  0
   -1.8854   -1.1096   -0.9344 H   0  0  0  0  0  0  0  0  0  0  0  0
   -1.8849   -1.2102    0.8276 H   0  0  0  0  0  0  0  0  0  0  0  0
    2.0603    0.7194    0.9061 H   0  0  0  0  0  0  0  0  0  0  0  0
    2.0672    0.7434   -0.8466 H   0  0  0  0  0  0  0  0  0  0  0  0
   -3.0389    1.0117    0.9637 H   0  0  0  0  0  0  0  0  0  0  0  0
   -3.0168    1.1432   -0.7847 H   0  0  0  0  0  0  0  0  0  0  0  0
    3.2522   -1.4677    0.9076 H   0  0  0  0  0  0  0  0  0  0  0  0
    3.2278   -1.4874   -0.8635 H   0  0  0  0  0  0  0  0  0  0  0  0
   -4.4379   -0.9194   -0.9667 H   0  0  0  0  0  0  0  0  0  0  0  0
   -4.4786   -1.0283    0.8110 H   0  0  0  0  0  0  0  0  0  0  0  0
    5.4605   -0.7316   -0.0249 H   0  0  0  0  0  0  0  0  0  0  0  0
  1  9  1  0  0  0  0
  2 10  2  0  0  0  0
  3  4  1  0  0  0  0
  3  5  1  0  0  0  0
  3 11  1  0  0  0  0
  3 12  1  0  0  0  0
  4  6  1  0  0  0  0
  4 13  1  0  0  0  0
  4 14  1  0  0  0  0
  5  7  1  0  0  0  0
  5 15  1  0  0  0  0
  5 16  1  0  0  0  0
  6  8  1  0  0  0  0
  6 17  1  0  0  0  0
  6 18  1  0  0  0  0
  7  9  1  0  0  0  0
  7 19  1  0  0  0  0
  7 20  1  0  0  0  0
  8 10  1  0  0  0  0
  8 21  1  0  0  0  0
  8 22  1  0  0  0  0
  9 23  1  0  0  0  0
  9 24  1  0  0  0  0
 10 25  1  0  0  0  0
M  END
> <PUBCHEM_COMPOUND_CID>
11629

> <PUBCHEM_CONFORMER_RMSD>
0.6

> <PUBCHEM_CONFORMER_DIVERSEORDER>
1
239
318
18
7
299
268
186
8
295
314
147
53
331
272
166
291
44
319
89
309
87
159
131
123
31
279
224
292
72
332
20
145
288
230
61
29
323
2
127
75
48
324
173
297
172
302
21
80
164
303
328
220
90
4
271
190
267
255
276
6
144
77
274
132
12
301
3
330
296
298
49
262
315
13
316
17
306
307
63
177
139
51
329
214
38
257
304
82
229
202
39
76
305
317
56
322
36
134
109
313
222
265
212
129
278
175
59
19
321
210
85
308
91
46
260
208
67
320
73
99
252
282
52
193
149
263
162
9
110
28
269
16
183
178
261
60
151
187
234
325
84
287
41
88
327
43
165
22
270
312
207
195
120
25
5
284
23
191
115
300
74
264
156
293
135
117
163
275
197
168
277
201
289
171
283
105
223
247
126
153
152
150
231
216
211
11
311
35
280
104
310
47
266
254
233
217
24
285
160
259
119
154
157
79
158
188
244
142
294
122
237
10
236
108
124
174
42
128
137
249
58
103
199
106
34
98
62
95
133
101
218
250
189
192
102
55
114
213
232
118
57
290
240
83
246
184
196
181
66
130
141
81
281
50
121
30
206
125
69
27
209
40
37
92
235
86
15
155
176
112
70
107
205
78
96
97
258
148
32
200
225
326
286
185
227
71
198
273
241
140
33
14
45
138
94
64
26
146
219
100
182
136
180
68
215
169
116
253
93
238
242
167
65
170
54
204
245
228
243
113
221
143
248
203
226
111
179
251
256
161
194

> <PUBCHEM_MMFF94_PARTIAL_CHARGES>
6
1 -0.34
10 0.45
2 -0.57
25 0.06
8 0.06
9 0.34

> <PUBCHEM_EFFECTIVE_ROTOR_COUNT>
7

> <PUBCHEM_PHARMACOPHORE_FEATURES>
3
1 2 acceptor
3 3 5 7 hydrophobe
3 4 6 8 hydrophobe

> <PUBCHEM_HEAVY_ATOM_COUNT>
10

> <PUBCHEM_ATOM_DEF_STEREO_COUNT>
0

> <PUBCHEM_ATOM_UDEF_STEREO_COUNT>
0

> <PUBCHEM_BOND_DEF_STEREO_COUNT>
0

> <PUBCHEM_BOND_UDEF_STEREO_COUNT>
0

> <PUBCHEM_ISOTOPIC_ATOM_COUNT>
0

> <PUBCHEM_COMPONENT_COUNT>
1

> <PUBCHEM_CACTVS_TAUTO_COUNT>
2

> <PUBCHEM_CONFORMER_ID>
00002D6D00000001

> <PUBCHEM_MMFF94_ENERGY>
0.2409

> <PUBCHEM_FEATURE_SELFOVERLAP>
15.223

> <PUBCHEM_SHAPE_FINGERPRINT>
11062470 55 18413107264347720554
114248 4 18409167701347898643
14123238 8 18410575080531674487
15501527 16 18339922731860030645
17834072 33 18113903714958775351
17834076 25 17894631456694958006
18342897 14 18409166610410472145
20645477 70 18115303505347484726
20719005 15 18410575093274157986
20767249 13 13183020713660513299
22485316 2 18272090500076088195
23402539 116 18412550907606896863
366044 4 18342176665750190315
42788 4 18410856568509318503
449060 50 18342175570148109134
522135 26 17312821593872015958

> <PUBCHEM_SHAPE_MULTIPOLES>
192.65
11.53
0.9
0.6
2.84
0.02
0
1.95
0.13
-0.47
0
-0.01
-0.02
-0.03

> <PUBCHEM_SHAPE_SELFOVERLAP>
343.956

> <PUBCHEM_SHAPE_VOLUME>
124.2

> <PUBCHEM_COORDINATE_TYPE>
2
5
10

$$$$

