17396187
  -OEChem-06241222552D

 45 46  0     1  0  0  0  0  0999 V2000
    2.8660   -2.6307    0.0000 S   0  0  0  0  0  0  0  0  0  0  0  0
    5.4641   -1.1307    0.0000 O   0  0  0  0  0  0  0  0  0  0  0  0
    7.1962   -0.1307    0.0000 O   0  0  0  0  0  0  0  0  0  0  0  0
    4.2478    3.6126    0.0000 O   0  0  0  0  0  0  0  0  0  0  0  0
    3.7320   -1.1307    0.0000 O   0  0  0  0  0  0  0  0  0  0  0  0
    7.1391    1.9571    0.0000 N   0  0  0  0  0  0  0  0  0  0  0  0
    3.7320   -4.1307    0.0000 N   0  0  0  0  0  0  0  0  0  0  0  0
    6.3301    1.3693    0.0000 C   0  0  0  0  0  0  0  0  0  0  0  0
    5.5211    1.9571    0.0000 C   0  0  0  0  0  0  0  0  0  0  0  0
    5.8301    2.9081    0.0000 C   0  0  0  0  0  0  0  0  0  0  0  0
    6.8301    2.9081    0.0000 C   0  0  0  0  0  0  0  0  0  0  0  0
    6.3301    0.3693    0.0000 C   0  0  0  0  0  0  0  0  0  0  0  0
    5.4641   -0.1307    0.0000 C   0  0  3  0  0  0  0  0  0  0  0  0
    4.5700    1.6481    0.0000 C   0  0  0  0  0  0  0  0  0  0  0  0
    7.4179    3.7172    0.0000 C   0  0  0  0  0  0  0  0  0  0  0  0
    5.2423    3.7172    0.0000 C   0  0  0  0  0  0  0  0  0  0  0  0
    4.5981    0.3693    0.0000 C   0  0  0  0  0  0  0  0  0  0  0  0
    5.6491    4.6307    0.0000 C   0  0  0  0  0  0  0  0  0  0  0  0
    4.5981   -1.6307    0.0000 C   0  0  0  0  0  0  0  0  0  0  0  0
    4.5981   -2.6307    0.0000 C   0  0  0  0  0  0  0  0  0  0  0  0
    3.7320   -3.1307    0.0000 C   0  0  0  0  0  0  0  0  0  0  0  0
    5.4641   -3.1307    0.0000 C   0  0  0  0  0  0  0  0  0  0  0  0
    5.4641   -4.1307    0.0000 C   0  0  0  0  0  0  0  0  0  0  0  0
    4.5981   -4.6307    0.0000 C   0  0  0  0  0  0  0  0  0  0  0  0
    2.0000   -3.1307    0.0000 C   0  0  0  0  0  0  0  0  0  0  0  0
    7.7288    1.7655    0.0000 H   0  0  0  0  0  0  0  0  0  0  0  0
    6.0010   -0.4407    0.0000 H   0  0  0  0  0  0  0  0  0  0  0  0
    4.3785    2.2377    0.0000 H   0  0  0  0  0  0  0  0  0  0  0  0
    3.9804    1.4565    0.0000 H   0  0  0  0  0  0  0  0  0  0  0  0
    4.7616    1.0584    0.0000 H   0  0  0  0  0  0  0  0  0  0  0  0
    7.9195    3.3527    0.0000 H   0  0  0  0  0  0  0  0  0  0  0  0
    7.7823    4.2188    0.0000 H   0  0  0  0  0  0  0  0  0  0  0  0
    6.9163    4.0816    0.0000 H   0  0  0  0  0  0  0  0  0  0  0  0
    4.9081    0.9062    0.0000 H   0  0  0  0  0  0  0  0  0  0  0  0
    4.0611    0.6793    0.0000 H   0  0  0  0  0  0  0  0  0  0  0  0
    4.2881   -0.1676    0.0000 H   0  0  0  0  0  0  0  0  0  0  0  0
    6.2155    4.3785    0.0000 H   0  0  0  0  0  0  0  0  0  0  0  0
    5.9013    5.1971    0.0000 H   0  0  0  0  0  0  0  0  0  0  0  0
    5.0827    4.8829    0.0000 H   0  0  0  0  0  0  0  0  0  0  0  0
    6.0010   -2.8207    0.0000 H   0  0  0  0  0  0  0  0  0  0  0  0
    6.0010   -4.4407    0.0000 H   0  0  0  0  0  0  0  0  0  0  0  0
    4.5981   -5.2507    0.0000 H   0  0  0  0  0  0  0  0  0  0  0  0
    1.6900   -2.5938    0.0000 H   0  0  0  0  0  0  0  0  0  0  0  0
    1.4631   -3.4407    0.0000 H   0  0  0  0  0  0  0  0  0  0  0  0
    2.3100   -3.6676    0.0000 H   0  0  0  0  0  0  0  0  0  0  0  0
  1 21  1  0  0  0  0
  1 25  1  0  0  0  0
  2 13  1  0  0  0  0
  2 19  1  0  0  0  0
  3 12  2  0  0  0  0
  4 16  2  0  0  0  0
  5 19  2  0  0  0  0
  6  8  1  0  0  0  0
  6 11  1  0  0  0  0
  6 26  1  0  0  0  0
  7 21  1  0  0  0  0
  7 24  2  0  0  0  0
  8  9  2  0  0  0  0
  8 12  1  0  0  0  0
  9 10  1  0  0  0  0
  9 14  1  0  0  0  0
 10 11  2  0  0  0  0
 10 16  1  0  0  0  0
 11 15  1  0  0  0  0
 12 13  1  0  0  0  0
 13 17  1  0  0  0  0
 13 27  1  0  0  0  0
 14 28  1  0  0  0  0
 14 29  1  0  0  0  0
 14 30  1  0  0  0  0
 15 31  1  0  0  0  0
 15 32  1  0  0  0  0
 15 33  1  0  0  0  0
 16 18  1  0  0  0  0
 17 34  1  0  0  0  0
 17 35  1  0  0  0  0
 17 36  1  0  0  0  0
 18 37  1  0  0  0  0
 18 38  1  0  0  0  0
 18 39  1  0  0  0  0
 19 20  1  0  0  0  0
 20 21  2  0  0  0  0
 20 22  1  0  0  0  0
 22 23  2  0  0  0  0
 22 40  1  0  0  0  0
 23 24  1  0  0  0  0
 23 41  1  0  0  0  0
 24 42  1  0  0  0  0
 25 43  1  0  0  0  0
 25 44  1  0  0  0  0
 25 45  1  0  0  0  0
M  END
> <PUBCHEM_COMPOUND_CID>
17396187

> <PUBCHEM_COMPOUND_CANONICALIZED>
1

> <PUBCHEM_CACTVS_COMPLEXITY>
527

> <PUBCHEM_CACTVS_HBOND_ACCEPTOR>
6

> <PUBCHEM_CACTVS_HBOND_DONOR>
1

> <PUBCHEM_CACTVS_ROTATABLE_BOND>
7

> <PUBCHEM_CACTVS_SUBSKEYS>
AAADceB7OABAAAAAAAAAAAAAAAAAAWAAAAAsAAAAAAAAAAAB4AAAHgQQAAAADBzh3ga+iZLJlAioA7T3TAKC0CB3CjAI2TH4bNgIJvrgtb2GMYhm0AHI6cec2/K+gAAAAAAAAAAAAAAAAAAAAAAAAAAAAA==

> <PUBCHEM_IUPAC_OPENEYE_NAME>
[2-(4-acetyl-3,5-dimethyl-1H-pyrrol-2-yl)-1-methyl-2-oxo-ethyl] 2-methylsulfanylpyridine-3-carboxylate

> <PUBCHEM_IUPAC_CAS_NAME>
2-(methylthio)-3-pyridinecarboxylic acid [1-(4-acetyl-3,5-dimethyl-1H-pyrrol-2-yl)-1-oxopropan-2-yl] ester

> <PUBCHEM_IUPAC_NAME>
[1-(4-acetyl-3,5-dimethyl-1H-pyrrol-2-yl)-1-oxopropan-2-yl] 2-methylsulfanylpyridine-3-carboxylate

> <PUBCHEM_IUPAC_SYSTEMATIC_NAME>
[1-(4-ethanoyl-3,5-dimethyl-1H-pyrrol-2-yl)-1-oxidanylidene-propan-2-yl] 2-methylsulfanylpyridine-3-carboxylate

> <PUBCHEM_IUPAC_TRADITIONAL_NAME>
2-(methylthio)nicotinic acid [2-(4-acetyl-3,5-dimethyl-1H-pyrrol-2-yl)-2-keto-1-methyl-ethyl] ester

> <PUBCHEM_IUPAC_INCHI>
InChI=1S/C18H20N2O4S/c1-9-14(11(3)21)10(2)20-15(9)16(22)12(4)24-18(23)13-7-6-8-19-17(13)25-5/h6-8,12,20H,1-5H3

> <PUBCHEM_IUPAC_INCHIKEY>
GDLCMWWKUUKAAW-UHFFFAOYSA-N

> <PUBCHEM_XLOGP3_AA>
2.9

> <PUBCHEM_EXACT_MASS>
360.114378

> <PUBCHEM_MOLECULAR_FORMULA>
C18H20N2O4S

> <PUBCHEM_MOLECULAR_WEIGHT>
360.4274

> <PUBCHEM_OPENEYE_CAN_SMILES>
CC1=C(NC(=C1C(=O)C)C)C(=O)C(C)OC(=O)C2=C(N=CC=C2)SC

> <PUBCHEM_OPENEYE_ISO_SMILES>
CC1=C(NC(=C1C(=O)C)C)C(=O)C(C)OC(=O)C2=C(N=CC=C2)SC

> <PUBCHEM_CACTVS_TPSA>
114

> <PUBCHEM_MONOISOTOPIC_WEIGHT>
360.114378

> <PUBCHEM_TOTAL_CHARGE>
0

> <PUBCHEM_HEAVY_ATOM_COUNT>
25

> <PUBCHEM_ATOM_DEF_STEREO_COUNT>
0

> <PUBCHEM_ATOM_UDEF_STEREO_COUNT>
1

> <PUBCHEM_BOND_DEF_STEREO_COUNT>
0

> <PUBCHEM_BOND_UDEF_STEREO_COUNT>
0

> <PUBCHEM_ISOTOPIC_ATOM_COUNT>
0

> <PUBCHEM_COMPONENT_COUNT>
1

> <PUBCHEM_CACTVS_TAUTO_COUNT>
62

> <PUBCHEM_COORDINATE_TYPE>
1
5
255

> <PUBCHEM_BONDANNOTATIONS>
10  11  8
13  17  3
20  21  8
20  22  8
22  23  8
23  24  8
6  11  8
6  8  8
7  21  8
7  24  8
8  9  8
9  10  8

$$$$

