8940
  -OEChem-06261203153D

 46 48  0     0  0  0  0  0  0999 V2000
   -5.0625    1.2600    1.9442 I   0  0  0  0  0  0  0  0  0  0  0  0
    0.4246    0.0209    1.7514 O   0  0  0  0  0  0  0  0  0  0  0  0
   -5.0639   -1.6716   -0.0490 O   0  0  0  0  0  0  0  0  0  0  0  0
   -3.2507   -0.3743   -0.7018 N   0  0  0  0  0  0  0  0  0  0  0  0
   -0.3725   -0.1083   -0.4574 C   0  0  0  0  0  0  0  0  0  0  0  0
    0.8948    0.0058    0.3863 C   0  0  0  0  0  0  0  0  0  0  0  0
   -1.3205    1.0688   -0.1823 C   0  0  0  0  0  0  0  0  0  0  0  0
   -1.0894   -1.4403   -0.1900 C   0  0  0  0  0  0  0  0  0  0  0  0
   -2.6246    0.9266   -0.9654 C   0  0  0  0  0  0  0  0  0  0  0  0
   -2.3963   -1.5312   -0.9745 C   0  0  0  0  0  0  0  0  0  0  0  0
    1.6049    1.3339    0.0696 C   0  0  0  0  0  0  0  0  0  0  0  0
    1.8749   -1.1745    0.2697 C   0  0  0  0  0  0  0  0  0  0  0  0
   -4.5605   -0.5659   -0.2636 C   0  0  0  0  0  0  0  0  0  0  0  0
    2.1714    1.4886   -1.1701 C   0  0  0  0  0  0  0  0  0  0  0  0
    2.5772   -1.5493    1.3872 C   0  0  0  0  0  0  0  0  0  0  0  0
    1.6379    2.3015    1.0416 C   0  0  0  0  0  0  0  0  0  0  0  0
    2.0008   -1.7979   -0.9459 C   0  0  0  0  0  0  0  0  0  0  0  0
   -5.3882    0.6753   -0.0447 C   0  0  0  0  0  0  0  0  0  0  0  0
    2.8149    2.6923   -1.4574 C   0  0  0  0  0  0  0  0  0  0  0  0
    3.4657   -2.6194    1.2817 C   0  0  0  0  0  0  0  0  0  0  0  0
    2.2812    3.5053    0.7543 C   0  0  0  0  0  0  0  0  0  0  0  0
    2.8892   -2.8682   -1.0512 C   0  0  0  0  0  0  0  0  0  0  0  0
    2.8697    3.7007   -0.4953 C   0  0  0  0  0  0  0  0  0  0  0  0
    3.6216   -3.2789    0.0627 C   0  0  0  0  0  0  0  0  0  0  0  0
   -0.1350   -0.0735   -1.5294 H   0  0  0  0  0  0  0  0  0  0  0  0
   -0.8679    2.0243   -0.4677 H   0  0  0  0  0  0  0  0  0  0  0  0
   -1.5660    1.1310    0.8848 H   0  0  0  0  0  0  0  0  0  0  0  0
   -1.3410   -1.5404    0.8725 H   0  0  0  0  0  0  0  0  0  0  0  0
   -0.4840   -2.3101   -0.4560 H   0  0  0  0  0  0  0  0  0  0  0  0
   -3.2641    1.7732   -0.7221 H   0  0  0  0  0  0  0  0  0  0  0  0
   -2.4274    0.9752   -2.0433 H   0  0  0  0  0  0  0  0  0  0  0  0
   -2.1972   -1.5455   -2.0527 H   0  0  0  0  0  0  0  0  0  0  0  0
   -2.9127   -2.4638   -0.7257 H   0  0  0  0  0  0  0  0  0  0  0  0
    0.2225   -0.8845    2.0404 H   0  0  0  0  0  0  0  0  0  0  0  0
    2.1291    0.7336   -1.9452 H   0  0  0  0  0  0  0  0  0  0  0  0
    2.4953   -1.0406    2.3419 H   0  0  0  0  0  0  0  0  0  0  0  0
    1.1899    2.1878    2.0223 H   0  0  0  0  0  0  0  0  0  0  0  0
    1.4556   -1.5039   -1.8348 H   0  0  0  0  0  0  0  0  0  0  0  0
   -6.4393    0.3932   -0.1833 H   0  0  0  0  0  0  0  0  0  0  0  0
   -5.2055    1.4482   -0.7925 H   0  0  0  0  0  0  0  0  0  0  0  0
    3.2691    2.8467   -2.4318 H   0  0  0  0  0  0  0  0  0  0  0  0
    4.0405   -2.9358    2.1473 H   0  0  0  0  0  0  0  0  0  0  0  0
    2.3232    4.2913    1.5026 H   0  0  0  0  0  0  0  0  0  0  0  0
    3.0125   -3.3808   -2.0008 H   0  0  0  0  0  0  0  0  0  0  0  0
    3.3694    4.6386   -0.7195 H   0  0  0  0  0  0  0  0  0  0  0  0
    4.3146   -4.1110   -0.0198 H   0  0  0  0  0  0  0  0  0  0  0  0
  1 18  1  0  0  0  0
  2  6  1  0  0  0  0
  2 34  1  0  0  0  0
  3 13  2  0  0  0  0
  4  9  1  0  0  0  0
  4 10  1  0  0  0  0
  4 13  1  0  0  0  0
  5  6  1  0  0  0  0
  5  7  1  0  0  0  0
  5  8  1  0  0  0  0
  5 25  1  0  0  0  0
  6 11  1  0  0  0  0
  6 12  1  0  0  0  0
  7  9  1  0  0  0  0
  7 26  1  0  0  0  0
  7 27  1  0  0  0  0
  8 10  1  0  0  0  0
  8 28  1  0  0  0  0
  8 29  1  0  0  0  0
  9 30  1  0  0  0  0
  9 31  1  0  0  0  0
 10 32  1  0  0  0  0
 10 33  1  0  0  0  0
 11 14  2  0  0  0  0
 11 16  1  0  0  0  0
 12 15  2  0  0  0  0
 12 17  1  0  0  0  0
 13 18  1  0  0  0  0
 14 19  1  0  0  0  0
 14 35  1  0  0  0  0
 15 20  1  0  0  0  0
 15 36  1  0  0  0  0
 16 21  2  0  0  0  0
 16 37  1  0  0  0  0
 17 22  2  0  0  0  0
 17 38  1  0  0  0  0
 18 39  1  0  0  0  0
 18 40  1  0  0  0  0
 19 23  2  0  0  0  0
 19 41  1  0  0  0  0
 20 24  2  0  0  0  0
 20 42  1  0  0  0  0
 21 23  1  0  0  0  0
 21 43  1  0  0  0  0
 22 24  1  0  0  0  0
 22 44  1  0  0  0  0
 23 45  1  0  0  0  0
 24 46  1  0  0  0  0
M  END
> <PUBCHEM_COMPOUND_CID>
8940

> <PUBCHEM_CONFORMER_RMSD>
0.8

> <PUBCHEM_CONFORMER_DIVERSEORDER>
1
8
7
11
10
3
6
9
5
2
4

> <PUBCHEM_MMFF94_PARTIAL_CHARGES>
32
1 -0.19
10 0.3
11 -0.14
12 -0.14
13 0.57
14 -0.15
15 -0.15
16 -0.15
17 -0.15
18 0.25
19 -0.15
2 -0.68
20 -0.15
21 -0.15
22 -0.15
23 -0.15
24 -0.15
3 -0.57
34 0.4
35 0.15
36 0.15
37 0.15
38 0.15
4 -0.66
41 0.15
42 0.15
43 0.15
44 0.15
45 0.15
46 0.15
6 0.57
9 0.3

> <PUBCHEM_EFFECTIVE_ROTOR_COUNT>
6.2

> <PUBCHEM_PHARMACOPHORE_FEATURES>
7
1 1 hydrophobe
1 2 acceptor
1 2 donor
1 3 acceptor
6 11 14 16 19 21 23 rings
6 12 15 17 20 22 24 rings
6 4 5 7 8 9 10 rings

> <PUBCHEM_HEAVY_ATOM_COUNT>
24

> <PUBCHEM_ATOM_DEF_STEREO_COUNT>
0

> <PUBCHEM_ATOM_UDEF_STEREO_COUNT>
0

> <PUBCHEM_BOND_DEF_STEREO_COUNT>
0

> <PUBCHEM_BOND_UDEF_STEREO_COUNT>
0

> <PUBCHEM_ISOTOPIC_ATOM_COUNT>
0

> <PUBCHEM_COMPONENT_COUNT>
1

> <PUBCHEM_CACTVS_TAUTO_COUNT>
1

> <PUBCHEM_CONFORMER_ID>
000022EC00000001

> <PUBCHEM_MMFF94_ENERGY>
81.0698

> <PUBCHEM_FEATURE_SELFOVERLAP>
35.52

> <PUBCHEM_SHAPE_FINGERPRINT>
11045515 52 18055631974209770076
11265709 11 18194118740783266894
11405975 8 18411699915972391067
11578080 2 17343182347613358145
11582403 64 15289895922882110568
12107183 9 18118394288689043193
12293681 160 17607791817109409992
12422481 6 17979395029290732176
12553582 1 18193556898520081382
12644460 14 18341608213589806185
12730499 353 18267857281799014483
12788726 201 17766558328480007906
13004483 165 18050016776938472390
13009979 54 17968650661086602729
13140716 1 18123761854941358746
13533116 47 18410292476833412747
13590594 115 18196927988143658912
13681431 1 18339922714378896506
13878862 14 18268730419129424453
13955234 65 18411699842224737155
14022347 108 18120925363744695614
14117953 113 17684638119816204929
14347424 109 18410846660874530483
14739800 52 17604159120811393209
14790565 3 17908981002925375293
14950920 106 18197752554131023505
14955137 171 18122050168376089171
15042514 8 17689718983746786898
15163728 17 17841693128840507732
15238133 3 17313656187743502737
15664445 248 18188756371203950982
15806764 133 18129670832297979533
15842332 3 17968389944177392135
17818456 19 17677329545344163681
17868525 174 18197505223574836489
1813 80 18265614479762661098
18785283 64 18413108333762883374
19078846 21 17894627093351252297
20567600 347 18126008152759525818
20600515 1 17909006631152738940
20739085 24 18188489206636159914
21033648 29 17316229074611198075
21421861 104 18410006663185463176
2255824 54 18413392033559384342
22849341 161 18191573357962819875
23366157 5 18272655623266838342
23419403 2 17768292134005350812
23559900 14 18411427227998023759
23566358 27 18340209591897399935
249057 25 17822293531323457265
25147074 1 18260556589194446167
312423 11 18408040706762563159
314173 41 18339363096703645990
350125 39 18413110567225421013
394222 165 18189331277876383650
4409770 3 17192085548696237004
458136 41 18269834216179441396
460360 51 18409448124553909697
474 4 17985828125289805565
5104073 3 18411131430017219747
5895379 119 17314492911264652737
6138700 20 18412545397876025508
6442390 28 17834956373683275428
7364860 26 18409456856005689972
7495541 125 17845926441828063043
81228 2 17762055841312002730
9841814 1 18201164346558219234
9981440 41 17977958885977608937

> <PUBCHEM_SHAPE_MULTIPOLES>
489.12
9.57
4.27
1.53
15.48
2.17
-0.48
-2.29
-1.6
-6.85
0.17
0.15
0.19
-1.68

> <PUBCHEM_SHAPE_SELFOVERLAP>
1028.94

> <PUBCHEM_SHAPE_VOLUME>
278.8

> <PUBCHEM_COORDINATE_TYPE>
2
5
10

$$$$

