9611
  -OEChem-06261203513D

 38 37  0     0  0  0  0  0  0999 V2000
   -7.4033    1.0989    0.6580 F   0  0  0  0  0  0  0  0  0  0  0  0
    5.1805    0.5568   -0.0262 O   0  0  0  0  0  0  0  0  0  0  0  0
    4.2208   -1.5207    0.2631 O   0  0  0  0  0  0  0  0  0  0  0  0
   -2.2593    0.2830   -0.2293 C   0  0  0  0  0  0  0  0  0  0  0  0
   -0.9630   -0.4954    0.0060 C   0  0  0  0  0  0  0  0  0  0  0  0
   -3.4864   -0.6123   -0.0348 C   0  0  0  0  0  0  0  0  0  0  0  0
    0.2991    0.3581   -0.1531 C   0  0  0  0  0  0  0  0  0  0  0  0
   -4.7835    0.1754   -0.2324 C   0  0  0  0  0  0  0  0  0  0  0  0
    1.5964   -0.4300    0.0586 C   0  0  0  0  0  0  0  0  0  0  0  0
   -6.0437   -0.6769   -0.0599 C   0  0  0  0  0  0  0  0  0  0  0  0
    2.8381    0.4576   -0.0395 C   0  0  0  0  0  0  0  0  0  0  0  0
   -7.3369    0.0962   -0.2571 C   0  0  0  0  0  0  0  0  0  0  0  0
    4.1334   -0.3120    0.0967 C   0  0  0  0  0  0  0  0  0  0  0  0
    6.4824   -0.0325    0.0513 C   0  0  0  0  0  0  0  0  0  0  0  0
    7.5255    1.0540   -0.1015 C   0  0  0  0  0  0  0  0  0  0  0  0
   -2.3067    1.1299    0.4658 H   0  0  0  0  0  0  0  0  0  0  0  0
   -2.2602    0.6967   -1.2449 H   0  0  0  0  0  0  0  0  0  0  0  0
   -0.9159   -1.3374   -0.6957 H   0  0  0  0  0  0  0  0  0  0  0  0
   -0.9767   -0.9254    1.0153 H   0  0  0  0  0  0  0  0  0  0  0  0
   -3.4729   -1.0448    0.9729 H   0  0  0  0  0  0  0  0  0  0  0  0
   -3.4509   -1.4462   -0.7460 H   0  0  0  0  0  0  0  0  0  0  0  0
    0.3089    0.8042   -1.1552 H   0  0  0  0  0  0  0  0  0  0  0  0
    0.2603    1.1882    0.5631 H   0  0  0  0  0  0  0  0  0  0  0  0
   -4.7878    0.6188   -1.2359 H   0  0  0  0  0  0  0  0  0  0  0  0
   -4.8125    1.0083    0.4811 H   0  0  0  0  0  0  0  0  0  0  0  0
    1.5749   -0.9163    1.0419 H   0  0  0  0  0  0  0  0  0  0  0  0
    1.6574   -1.2340   -0.6855 H   0  0  0  0  0  0  0  0  0  0  0  0
   -6.0412   -1.1010    0.9514 H   0  0  0  0  0  0  0  0  0  0  0  0
   -6.0175   -1.5155   -0.7653 H   0  0  0  0  0  0  0  0  0  0  0  0
    2.8481    0.9615   -1.0129 H   0  0  0  0  0  0  0  0  0  0  0  0
    2.8083    1.2160    0.7510 H   0  0  0  0  0  0  0  0  0  0  0  0
   -8.2061   -0.5515   -0.1121 H   0  0  0  0  0  0  0  0  0  0  0  0
   -7.3893    0.5424   -1.2543 H   0  0  0  0  0  0  0  0  0  0  0  0
    6.5972   -0.7710   -0.7500 H   0  0  0  0  0  0  0  0  0  0  0  0
    6.6024   -0.5269    1.0217 H   0  0  0  0  0  0  0  0  0  0  0  0
    7.4070    1.5699   -1.0600 H   0  0  0  0  0  0  0  0  0  0  0  0
    7.4121    1.8100    0.6825 H   0  0  0  0  0  0  0  0  0  0  0  0
    8.5351    0.6373   -0.0471 H   0  0  0  0  0  0  0  0  0  0  0  0
  1 12  1  0  0  0  0
  2 13  1  0  0  0  0
  2 14  1  0  0  0  0
  3 13  2  0  0  0  0
  4  5  1  0  0  0  0
  4  6  1  0  0  0  0
  4 16  1  0  0  0  0
  4 17  1  0  0  0  0
  5  7  1  0  0  0  0
  5 18  1  0  0  0  0
  5 19  1  0  0  0  0
  6  8  1  0  0  0  0
  6 20  1  0  0  0  0
  6 21  1  0  0  0  0
  7  9  1  0  0  0  0
  7 22  1  0  0  0  0
  7 23  1  0  0  0  0
  8 10  1  0  0  0  0
  8 24  1  0  0  0  0
  8 25  1  0  0  0  0
  9 11  1  0  0  0  0
  9 26  1  0  0  0  0
  9 27  1  0  0  0  0
 10 12  1  0  0  0  0
 10 28  1  0  0  0  0
 10 29  1  0  0  0  0
 11 13  1  0  0  0  0
 11 30  1  0  0  0  0
 11 31  1  0  0  0  0
 12 32  1  0  0  0  0
 12 33  1  0  0  0  0
 14 15  1  0  0  0  0
 14 34  1  0  0  0  0
 14 35  1  0  0  0  0
 15 36  1  0  0  0  0
 15 37  1  0  0  0  0
 15 38  1  0  0  0  0
M  END
> <PUBCHEM_COMPOUND_CID>
9611

> <PUBCHEM_CONFORMER_RMSD>
1.2

> <PUBCHEM_CONFORMER_DIVERSEORDER>
1
53
17
47
35
52
60
36
48
5
15
37
29
30
27
42
21
20
19
3
23
61
34
40
26
12
14
4
46
22
31
13
28
56
10
39
25
58
41
57
33
55
50
2
9
49
43
24
8
7
18
45
51
54
11
6
38
16
59
32
44

> <PUBCHEM_MMFF94_PARTIAL_CHARGES>
7
1 -0.34
11 0.06
12 0.34
13 0.66
14 0.28
2 -0.43
3 -0.57

> <PUBCHEM_EFFECTIVE_ROTOR_COUNT>
11

> <PUBCHEM_PHARMACOPHORE_FEATURES>
1
1 3 acceptor

> <PUBCHEM_HEAVY_ATOM_COUNT>
15

> <PUBCHEM_ATOM_DEF_STEREO_COUNT>
0

> <PUBCHEM_ATOM_UDEF_STEREO_COUNT>
0

> <PUBCHEM_BOND_DEF_STEREO_COUNT>
0

> <PUBCHEM_BOND_UDEF_STEREO_COUNT>
0

> <PUBCHEM_ISOTOPIC_ATOM_COUNT>
0

> <PUBCHEM_COMPONENT_COUNT>
1

> <PUBCHEM_CACTVS_TAUTO_COUNT>
1

> <PUBCHEM_CONFORMER_ID>
0000258B00000001

> <PUBCHEM_MMFF94_ENERGY>
2.215

> <PUBCHEM_FEATURE_SELFOVERLAP>
5.074

> <PUBCHEM_SHAPE_FINGERPRINT>
10968037 39 18413390926058818983
11315181 36 17676202447373683867
11638347 137 16056889039993449192
12091667 2 17821729425849558415
13073987 5 16486705769434910612
13533116 47 18187650253621242962
14123256 10 18408604756058768156
1420 363 16487252188639393371
14251764 18 18409450292931736233
14251764 46 18410575080368111630
14729087 3 18261112993802538769
17834076 25 18410856555344828782
18006028 8 17603305951348730537
20281389 69 18131355215302759684
20621476 8 18410291436696719318
20645477 70 18340490084118143494
20735858 18 14117802410004544160
21130983 4 18413387627059815892
220451 1 17749114391452281559
22224240 67 17203611462844353962
23035841 295 11312055452854403921
23402539 116 17821734927644558093
23521765 1 18335421261586366493
28498 318 7709468212281784384
33684 2 18410294709783545478
42788 4 18341896289883725958
4463277 17 18409449189541989377
8209 1 18335139787089677829

> <PUBCHEM_SHAPE_MULTIPOLES>
289.68
23.7
0.99
0.64
6.13
0.09
0
-4.79
0.73
-0.43
0.06
0.22
-0.03
-0.4

> <PUBCHEM_SHAPE_SELFOVERLAP>
528.613

> <PUBCHEM_SHAPE_VOLUME>
184.4

> <PUBCHEM_COORDINATE_TYPE>
2
5
10

$$$$

