10912
  -OEChem-06261205073D

 77 76  0     0  0  0  0  0  0999 V2000
    0.6496    2.4939    1.3267 Si  0  0  0  0  0  0  0  0  0  0  0  0
    3.3090    1.8465   -0.2818 Si  0  0  0  0  0  0  0  0  0  0  0  0
   -1.9631    2.9629   -0.4025 Si  0  0  0  0  0  0  0  0  0  0  0  0
    4.4316   -1.1096   -0.1613 Si  0  0  0  0  0  0  0  0  0  0  0  0
   -3.8700    0.4408   -0.6991 Si  0  0  0  0  0  0  0  0  0  0  0  0
    2.2887   -3.4359   -0.0614 Si  0  0  0  0  0  0  0  0  0  0  0  0
   -4.5470   -2.3860    0.5784 Si  0  0  0  0  0  0  0  0  0  0  0  0
    1.7697    2.3873    0.0883 O   0  0  0  0  0  0  0  0  0  0  0  0
   -0.7707    3.1757    0.7559 O   0  0  0  0  0  0  0  0  0  0  0  0
    3.3811    0.1901   -0.0455 O   0  0  0  0  0  0  0  0  0  0  0  0
   -2.6897    1.4838   -0.1479 O   0  0  0  0  0  0  0  0  0  0  0  0
    3.6167   -2.4912    0.3230 O   0  0  0  0  0  0  0  0  0  0  0  0
   -3.8424   -0.9004    0.2955 O   0  0  0  0  0  0  0  0  0  0  0  0
    0.2855    0.7633    1.9810 C   0  0  0  0  0  0  0  0  0  0  0  0
    1.3480    3.4925    2.7612 C   0  0  0  0  0  0  0  0  0  0  0  0
    3.7542    2.2604   -2.0610 C   0  0  0  0  0  0  0  0  0  0  0  0
    4.5646    2.7209    0.8175 C   0  0  0  0  0  0  0  0  0  0  0  0
   -1.2155    3.0570   -2.1253 C   0  0  0  0  0  0  0  0  0  0  0  0
   -3.2392    4.3373   -0.2568 C   0  0  0  0  0  0  0  0  0  0  0  0
    5.0343   -1.2891   -1.9355 C   0  0  0  0  0  0  0  0  0  0  0  0
    5.9412   -0.8350    0.9294 C   0  0  0  0  0  0  0  0  0  0  0  0
   -3.5109   -0.0442   -2.4821 C   0  0  0  0  0  0  0  0  0  0  0  0
   -5.5592    1.2611   -0.6759 C   0  0  0  0  0  0  0  0  0  0  0  0
    2.4277   -4.1192   -1.8088 C   0  0  0  0  0  0  0  0  0  0  0  0
    0.7014   -2.4346    0.0620 C   0  0  0  0  0  0  0  0  0  0  0  0
    2.1542   -4.8909    1.1204 C   0  0  0  0  0  0  0  0  0  0  0  0
   -6.3787   -2.2032    0.9541 C   0  0  0  0  0  0  0  0  0  0  0  0
   -3.7221   -3.2110    2.0568 C   0  0  0  0  0  0  0  0  0  0  0  0
   -4.3488   -3.5234   -0.9055 C   0  0  0  0  0  0  0  0  0  0  0  0
    1.2053    0.2657    2.3009 H   0  0  0  0  0  0  0  0  0  0  0  0
   -0.3956    0.8141    2.8356 H   0  0  0  0  0  0  0  0  0  0  0  0
   -0.1881    0.1604    1.2026 H   0  0  0  0  0  0  0  0  0  0  0  0
    2.2349    3.0064    3.1772 H   0  0  0  0  0  0  0  0  0  0  0  0
    1.6279    4.4962    2.4281 H   0  0  0  0  0  0  0  0  0  0  0  0
    0.6043    3.5888    3.5575 H   0  0  0  0  0  0  0  0  0  0  0  0
    3.6515    3.3348   -2.2403 H   0  0  0  0  0  0  0  0  0  0  0  0
    4.7865    1.9746   -2.2817 H   0  0  0  0  0  0  0  0  0  0  0  0
    3.0932    1.7321   -2.7543 H   0  0  0  0  0  0  0  0  0  0  0  0
    4.4532    3.8062    0.7364 H   0  0  0  0  0  0  0  0  0  0  0  0
    4.4250    2.4362    1.8642 H   0  0  0  0  0  0  0  0  0  0  0  0
    5.5846    2.4582    0.5230 H   0  0  0  0  0  0  0  0  0  0  0  0
   -0.5030    2.2417   -2.2813 H   0  0  0  0  0  0  0  0  0  0  0  0
   -1.9945    2.9837   -2.8897 H   0  0  0  0  0  0  0  0  0  0  0  0
   -0.6882    4.0055   -2.2633 H   0  0  0  0  0  0  0  0  0  0  0  0
   -3.7302    4.3026    0.7200 H   0  0  0  0  0  0  0  0  0  0  0  0
   -2.7623    5.3156   -0.3677 H   0  0  0  0  0  0  0  0  0  0  0  0
   -4.0048    4.2395   -1.0318 H   0  0  0  0  0  0  0  0  0  0  0  0
    5.6557   -0.4358   -2.2213 H   0  0  0  0  0  0  0  0  0  0  0  0
    5.6317   -2.1989   -2.0457 H   0  0  0  0  0  0  0  0  0  0  0  0
    4.1888   -1.3456   -2.6270 H   0  0  0  0  0  0  0  0  0  0  0  0
    6.5118    0.0344    0.5909 H   0  0  0  0  0  0  0  0  0  0  0  0
    5.6383   -0.6678    1.9671 H   0  0  0  0  0  0  0  0  0  0  0  0
    6.5981   -1.7092    0.8990 H   0  0  0  0  0  0  0  0  0  0  0  0
   -2.5299   -0.5223   -2.5584 H   0  0  0  0  0  0  0  0  0  0  0  0
   -4.2656   -0.7449   -2.8506 H   0  0  0  0  0  0  0  0  0  0  0  0
   -3.5173    0.8363   -3.1310 H   0  0  0  0  0  0  0  0  0  0  0  0
   -6.3301    0.5697   -1.0282 H   0  0  0  0  0  0  0  0  0  0  0  0
   -5.8189    1.5773    0.3387 H   0  0  0  0  0  0  0  0  0  0  0  0
   -5.5712    2.1421   -1.3241 H   0  0  0  0  0  0  0  0  0  0  0  0
    2.4332   -3.3076   -2.5421 H   0  0  0  0  0  0  0  0  0  0  0  0
    3.3509   -4.6945   -1.9239 H   0  0  0  0  0  0  0  0  0  0  0  0
    1.5822   -4.7764   -2.0324 H   0  0  0  0  0  0  0  0  0  0  0  0
    0.7519   -1.5432   -0.5696 H   0  0  0  0  0  0  0  0  0  0  0  0
   -0.1572   -3.0331   -0.2568 H   0  0  0  0  0  0  0  0  0  0  0  0
    0.5336   -2.1236    1.0964 H   0  0  0  0  0  0  0  0  0  0  0  0
    2.0464   -4.5398    2.1510 H   0  0  0  0  0  0  0  0  0  0  0  0
    1.2854   -5.5088    0.8750 H   0  0  0  0  0  0  0  0  0  0  0  0
    3.0493   -5.5169    1.0626 H   0  0  0  0  0  0  0  0  0  0  0  0
   -6.8232   -3.1757    1.1859 H   0  0  0  0  0  0  0  0  0  0  0  0
   -6.5313   -1.5423    1.8123 H   0  0  0  0  0  0  0  0  0  0  0  0
   -6.9095   -1.7806    0.0962 H   0  0  0  0  0  0  0  0  0  0  0  0
   -2.6541   -3.3543    1.8679 H   0  0  0  0  0  0  0  0  0  0  0  0
   -3.8338   -2.5923    2.9520 H   0  0  0  0  0  0  0  0  0  0  0  0
   -4.1725   -4.1882    2.2535 H   0  0  0  0  0  0  0  0  0  0  0  0
   -3.2910   -3.6472   -1.1556 H   0  0  0  0  0  0  0  0  0  0  0  0
   -4.7700   -4.5103   -0.6927 H   0  0  0  0  0  0  0  0  0  0  0  0
   -4.8633   -3.1126   -1.7789 H   0  0  0  0  0  0  0  0  0  0  0  0
  1  8  1  0  0  0  0
  1  9  1  0  0  0  0
  1 14  1  0  0  0  0
  1 15  1  0  0  0  0
  2  8  1  0  0  0  0
  2 10  1  0  0  0  0
  2 16  1  0  0  0  0
  2 17  1  0  0  0  0
  3  9  1  0  0  0  0
  3 11  1  0  0  0  0
  3 18  1  0  0  0  0
  3 19  1  0  0  0  0
  4 10  1  0  0  0  0
  4 12  1  0  0  0  0
  4 20  1  0  0  0  0
  4 21  1  0  0  0  0
  5 11  1  0  0  0  0
  5 13  1  0  0  0  0
  5 22  1  0  0  0  0
  5 23  1  0  0  0  0
  6 12  1  0  0  0  0
  6 24  1  0  0  0  0
  6 25  1  0  0  0  0
  6 26  1  0  0  0  0
  7 13  1  0  0  0  0
  7 27  1  0  0  0  0
  7 28  1  0  0  0  0
  7 29  1  0  0  0  0
 14 30  1  0  0  0  0
 14 31  1  0  0  0  0
 14 32  1  0  0  0  0
 15 33  1  0  0  0  0
 15 34  1  0  0  0  0
 15 35  1  0  0  0  0
 16 36  1  0  0  0  0
 16 37  1  0  0  0  0
 16 38  1  0  0  0  0
 17 39  1  0  0  0  0
 17 40  1  0  0  0  0
 17 41  1  0  0  0  0
 18 42  1  0  0  0  0
 18 43  1  0  0  0  0
 18 44  1  0  0  0  0
 19 45  1  0  0  0  0
 19 46  1  0  0  0  0
 19 47  1  0  0  0  0
 20 48  1  0  0  0  0
 20 49  1  0  0  0  0
 20 50  1  0  0  0  0
 21 51  1  0  0  0  0
 21 52  1  0  0  0  0
 21 53  1  0  0  0  0
 22 54  1  0  0  0  0
 22 55  1  0  0  0  0
 22 56  1  0  0  0  0
 23 57  1  0  0  0  0
 23 58  1  0  0  0  0
 23 59  1  0  0  0  0
 24 60  1  0  0  0  0
 24 61  1  0  0  0  0
 24 62  1  0  0  0  0
 25 63  1  0  0  0  0
 25 64  1  0  0  0  0
 25 65  1  0  0  0  0
 26 66  1  0  0  0  0
 26 67  1  0  0  0  0
 26 68  1  0  0  0  0
 27 69  1  0  0  0  0
 27 70  1  0  0  0  0
 27 71  1  0  0  0  0
 28 72  1  0  0  0  0
 28 73  1  0  0  0  0
 28 74  1  0  0  0  0
 29 75  1  0  0  0  0
 29 76  1  0  0  0  0
 29 77  1  0  0  0  0
M  END
> <PUBCHEM_COMPOUND_CID>
10912

> <PUBCHEM_CONFORMER_RMSD>
1.6

> <PUBCHEM_CONFORMER_DIVERSEORDER>
12
39
98
37
72
17
105
47
48
63
97
50
7
94
69
8
52
92
18
9
31
58
74
83
11
76
67
95
85
53
5
33
35
60
77
49
22
62
44
107
51
68
64
73
90
86
88
19
100
46
57
41
13
87
27
43
21
80
34
102
54
38
61
2
96
45
15
42
30
29
1
16
10
6
56
75
103
89
4
59
79
70
40
26
84
28
71
101
81
104
14
106
99
36
91
24
93
23
25
78
82
66
20
55
32
3
65

> <PUBCHEM_MMFF94_PARTIAL_CHARGES>
29
1 0.76
10 -0.59
11 -0.59
12 -0.59
13 -0.59
14 -0.08
15 -0.08
16 -0.08
17 -0.08
18 -0.08
19 -0.08
2 0.76
20 -0.08
21 -0.08
22 -0.08
23 -0.08
24 -0.08
25 -0.08
26 -0.08
27 -0.08
28 -0.08
29 -0.08
3 0.76
4 0.76
5 0.76
6 0.54
7 0.54
8 -0.59
9 -0.59

> <PUBCHEM_EFFECTIVE_ROTOR_COUNT>
12

> <PUBCHEM_PHARMACOPHORE_FEATURES>
0

> <PUBCHEM_HEAVY_ATOM_COUNT>
29

> <PUBCHEM_ATOM_DEF_STEREO_COUNT>
0

> <PUBCHEM_ATOM_UDEF_STEREO_COUNT>
0

> <PUBCHEM_BOND_DEF_STEREO_COUNT>
0

> <PUBCHEM_BOND_UDEF_STEREO_COUNT>
0

> <PUBCHEM_ISOTOPIC_ATOM_COUNT>
0

> <PUBCHEM_COMPONENT_COUNT>
1

> <PUBCHEM_CACTVS_TAUTO_COUNT>
1

> <PUBCHEM_CONFORMER_ID>
00002AA00000000C

> <PUBCHEM_MMFF94_ENERGY>
-4.3655

> <PUBCHEM_FEATURE_SELFOVERLAP>
0

> <PUBCHEM_SHAPE_FINGERPRINT>
10439779 11 18197228159693088986
10928967 22 18114464470210425639
11285246 1 18129932489868246930
13383661 66 17900786458827287734
13402501 40 18269553836799193083
1361 2 17761779464509425995
14251757 5 18122063367174729459
15001296 14 18411141354874230872
15264996 142 17327436520860642546
15320291 9 17832709345615926759
15406563 228 18130781283476431852
17909252 39 18335982051529980114
19315092 285 16880219727539618703
19958102 18 18197792200626765253
20764821 26 18340205185181865039
20775530 9 18411420596589273471
21315759 227 18340492265348989958
23559900 14 18341342144967286957
3737641 26 18336260150609940369
4394409 98 16544972438144011943
445580 102 18408323302040130934
463206 1 17977383055960572128
5309563 4 18337671915108338727
86090 222 18046907082643796227

> <PUBCHEM_SHAPE_MULTIPOLES>
689.08
13.15
7.3
2.18
4.85
2.62
-0.05
6.96
-1.2
0.14
0.95
-0.18
-0.66
2.39

> <PUBCHEM_SHAPE_SELFOVERLAP>
1188.409

> <PUBCHEM_SHAPE_VOLUME>
458.2

> <PUBCHEM_COORDINATE_TYPE>
2
5
10

$$$$

