47205117
  -OEChem-06241222583D

 36 37  0     0  0  0  0  0  0999 V2000
    1.9591    1.3212   -2.4176 Br  0  0  0  0  0  0  0  0  0  0  0  0
    0.4096    2.1017    0.4543 S   0  0  0  0  0  0  0  0  0  0  0  0
    3.7799   -2.7324    0.2712 F   0  0  0  0  0  0  0  0  0  0  0  0
   -0.0166    2.2480    1.8330 O   0  0  0  0  0  0  0  0  0  0  0  0
    1.1236    3.1773   -0.2066 O   0  0  0  0  0  0  0  0  0  0  0  0
   -0.9151    1.6633   -0.5066 N   0  0  0  0  0  0  0  0  0  0  0  0
   -1.7295    0.4671   -0.1400 C   0  0  0  0  0  0  0  0  0  0  0  0
   -3.1652    0.9457    0.1056 C   0  0  0  0  0  0  0  0  0  0  0  0
   -1.6395   -0.5346   -1.2943 C   0  0  0  0  0  0  0  0  0  0  0  0
   -4.0940   -0.0819    0.7450 C   0  0  0  0  0  0  0  0  0  0  0  0
   -1.8779   -1.9917   -0.9051 C   0  0  0  0  0  0  0  0  0  0  0  0
   -4.2164   -1.4082   -0.0017 C   0  0  0  0  0  0  0  0  0  0  0  0
   -2.9668   -2.2726    0.1252 C   0  0  0  0  0  0  0  0  0  0  0  0
    1.4316    0.6631    0.3498 C   0  0  0  0  0  0  0  0  0  0  0  0
    2.0951    0.3014   -0.8226 C   0  0  0  0  0  0  0  0  0  0  0  0
    1.5612   -0.1221    1.4953 C   0  0  0  0  0  0  0  0  0  0  0  0
    2.8884   -0.8455   -0.8495 C   0  0  0  0  0  0  0  0  0  0  0  0
    2.3544   -1.2692    1.4684 C   0  0  0  0  0  0  0  0  0  0  0  0
    3.0181   -1.6308    0.2961 C   0  0  0  0  0  0  0  0  0  0  0  0
   -1.3351    0.0272    0.7821 H   0  0  0  0  0  0  0  0  0  0  0  0
   -3.6076    1.2950   -0.8369 H   0  0  0  0  0  0  0  0  0  0  0  0
   -3.1424    1.8257    0.7626 H   0  0  0  0  0  0  0  0  0  0  0  0
   -0.6537   -0.4877   -1.7710 H   0  0  0  0  0  0  0  0  0  0  0  0
   -2.3486   -0.2527   -2.0839 H   0  0  0  0  0  0  0  0  0  0  0  0
   -2.1039   -2.5514   -1.8219 H   0  0  0  0  0  0  0  0  0  0  0  0
   -0.9386   -2.4150   -0.5260 H   0  0  0  0  0  0  0  0  0  0  0  0
   -3.7726   -0.2680    1.7775 H   0  0  0  0  0  0  0  0  0  0  0  0
   -5.0931    0.3664    0.8155 H   0  0  0  0  0  0  0  0  0  0  0  0
   -4.4835   -1.2461   -1.0521 H   0  0  0  0  0  0  0  0  0  0  0  0
   -5.0510   -1.9596    0.4498 H   0  0  0  0  0  0  0  0  0  0  0  0
   -2.5486   -2.1793    1.1352 H   0  0  0  0  0  0  0  0  0  0  0  0
   -3.2555   -3.3265    0.0221 H   0  0  0  0  0  0  0  0  0  0  0  0
   -1.0235    2.0344   -1.4581 H   0  0  0  0  0  0  0  0  0  0  0  0
    1.0563    0.1261    2.4239 H   0  0  0  0  0  0  0  0  0  0  0  0
    3.4131   -1.1451   -1.7530 H   0  0  0  0  0  0  0  0  0  0  0  0
    2.4549   -1.8818    2.3595 H   0  0  0  0  0  0  0  0  0  0  0  0
  1 15  1  0  0  0  0
  2  4  2  0  0  0  0
  2  5  2  0  0  0  0
  2  6  1  0  0  0  0
  2 14  1  0  0  0  0
  3 19  1  0  0  0  0
  6  7  1  0  0  0  0
  6 33  1  0  0  0  0
  7  8  1  0  0  0  0
  7  9  1  0  0  0  0
  7 20  1  0  0  0  0
  8 10  1  0  0  0  0
  8 21  1  0  0  0  0
  8 22  1  0  0  0  0
  9 11  1  0  0  0  0
  9 23  1  0  0  0  0
  9 24  1  0  0  0  0
 10 12  1  0  0  0  0
 10 27  1  0  0  0  0
 10 28  1  0  0  0  0
 11 13  1  0  0  0  0
 11 25  1  0  0  0  0
 11 26  1  0  0  0  0
 12 13  1  0  0  0  0
 12 29  1  0  0  0  0
 12 30  1  0  0  0  0
 13 31  1  0  0  0  0
 13 32  1  0  0  0  0
 14 15  2  0  0  0  0
 14 16  1  0  0  0  0
 15 17  1  0  0  0  0
 16 18  2  0  0  0  0
 16 34  1  0  0  0  0
 17 19  2  0  0  0  0
 17 35  1  0  0  0  0
 18 19  1  0  0  0  0
 18 36  1  0  0  0  0
M  END
> <PUBCHEM_COMPOUND_CID>
47205117

> <PUBCHEM_CONFORMER_RMSD>
0.6

> <PUBCHEM_CONFORMER_DIVERSEORDER>
3
49
60
59
64
7
50
45
66
52
54
55
61
53
36
63
2
11
65
57
39
46
33
41
34
56
35
29
22
23
4
62
47
6
17
19
26
25
48
10
32
67
44
51
15
8
18
58
20
13
28
14
24
16
31
30
21
5
40
1
38
42
37
43
27
9
12

> <PUBCHEM_MMFF94_PARTIAL_CHARGES>
17
1 -0.11
14 -0.01
15 0.11
16 -0.15
17 -0.15
18 -0.15
19 0.19
2 1.45
3 -0.19
33 0.42
34 0.15
35 0.15
36 0.15
4 -0.65
5 -0.65
6 -0.91
7 0.36

> <PUBCHEM_EFFECTIVE_ROTOR_COUNT>
4.4

> <PUBCHEM_PHARMACOPHORE_FEATURES>
6
1 1 hydrophobe
1 4 acceptor
1 5 acceptor
1 6 donor
6 14 15 16 17 18 19 rings
7 7 8 9 10 11 12 13 rings

> <PUBCHEM_HEAVY_ATOM_COUNT>
19

> <PUBCHEM_ATOM_DEF_STEREO_COUNT>
0

> <PUBCHEM_ATOM_UDEF_STEREO_COUNT>
0

> <PUBCHEM_BOND_DEF_STEREO_COUNT>
0

> <PUBCHEM_BOND_UDEF_STEREO_COUNT>
0

> <PUBCHEM_ISOTOPIC_ATOM_COUNT>
0

> <PUBCHEM_COMPONENT_COUNT>
1

> <PUBCHEM_CACTVS_TAUTO_COUNT>
1

> <PUBCHEM_CONFORMER_ID>
02D04AFD00000003

> <PUBCHEM_MMFF94_ENERGY>
27.7728

> <PUBCHEM_FEATURE_SELFOVERLAP>
30.464

> <PUBCHEM_SHAPE_FINGERPRINT>
11067466 332 17913214161050612438
11140007 195 16444162306139849015
11578080 2 18058189334935052692
11725454 13 14259927370481059740
12400797 292 17917137343303539358
12506688 2 18408042900862987201
12553582 1 18410015454782882479
12633257 1 16154005624134186674
13533116 47 18190746320005131959
14022347 108 17896293944199277909
14115302 16 18340205318362553741
14178342 30 17542799607560428955
15375462 189 18411692162712422277
16752209 62 18122354729108269453
16945 1 18051432930486628752
17349148 13 18040715828148918415
19078846 21 18260256452320985933
19422 9 18272079509481260709
20291156 8 18342740770780574338
20442098 301 18043533815725260431
20559304 39 18337394820660445455
20600515 1 18042122231468334728
20645477 70 18196667198388451975
21634736 98 18201428199426512726
21731516 1 18272662250438240659
2255824 54 18053663581591549133
232386 152 18334862726949009420
23598291 2 17844793961841458244
238 59 16701150025054876638
465052 167 18340754997679433371
7097593 13 18261961739047660323
7364860 26 18191308178113356344
81228 2 17679579210095470064

> <PUBCHEM_SHAPE_MULTIPOLES>
376.81
6.65
2.97
1.67
5.04
0.26
0.34
-4.13
0.03
-1.32
-0.3
-1.11
0.5
-1.03

> <PUBCHEM_SHAPE_SELFOVERLAP>
750.107

> <PUBCHEM_SHAPE_VOLUME>
224.6

> <PUBCHEM_COORDINATE_TYPE>
2
5
10

$$$$

