9540
  -OEChem-06261203482D

 22 21  0     0  0  0  0  0  0999 V2000
    9.7942   -0.5000    0.0000 S   0  0  0  0  0  0  0  0  0  0  0  0
    2.0000    0.0000    0.0000 F   0  0  0  0  0  0  0  0  0  0  0  0
    8.0622    0.5000    0.0000 N   0  0  0  0  0  0  0  0  0  0  0  0
    5.4641    0.0000    0.0000 C   0  0  0  0  0  0  0  0  0  0  0  0
    4.5981    0.5000    0.0000 C   0  0  0  0  0  0  0  0  0  0  0  0
    6.3301    0.5000    0.0000 C   0  0  0  0  0  0  0  0  0  0  0  0
    3.7320    0.0000    0.0000 C   0  0  0  0  0  0  0  0  0  0  0  0
    7.1962    0.0000    0.0000 C   0  0  0  0  0  0  0  0  0  0  0  0
    2.8660    0.5000    0.0000 C   0  0  0  0  0  0  0  0  0  0  0  0
    8.9282    0.0000    0.0000 C   0  0  0  0  0  0  0  0  0  0  0  0
    5.0656   -0.4749    0.0000 H   0  0  0  0  0  0  0  0  0  0  0  0
    5.8626   -0.4749    0.0000 H   0  0  0  0  0  0  0  0  0  0  0  0
    4.9966    0.9749    0.0000 H   0  0  0  0  0  0  0  0  0  0  0  0
    4.1996    0.9749    0.0000 H   0  0  0  0  0  0  0  0  0  0  0  0
    6.7287    0.9749    0.0000 H   0  0  0  0  0  0  0  0  0  0  0  0
    5.9316    0.9749    0.0000 H   0  0  0  0  0  0  0  0  0  0  0  0
    3.3335   -0.4749    0.0000 H   0  0  0  0  0  0  0  0  0  0  0  0
    4.1306   -0.4749    0.0000 H   0  0  0  0  0  0  0  0  0  0  0  0
    6.7976   -0.4749    0.0000 H   0  0  0  0  0  0  0  0  0  0  0  0
    7.5947   -0.4749    0.0000 H   0  0  0  0  0  0  0  0  0  0  0  0
    3.2646    0.9749    0.0000 H   0  0  0  0  0  0  0  0  0  0  0  0
    2.4675    0.9749    0.0000 H   0  0  0  0  0  0  0  0  0  0  0  0
  1 10  2  0  0  0  0
  2  9  1  0  0  0  0
  3  8  1  0  0  0  0
  3 10  2  0  0  0  0
  4  5  1  0  0  0  0
  4  6  1  0  0  0  0
  4 11  1  0  0  0  0
  4 12  1  0  0  0  0
  5  7  1  0  0  0  0
  5 13  1  0  0  0  0
  5 14  1  0  0  0  0
  6  8  1  0  0  0  0
  6 15  1  0  0  0  0
  6 16  1  0  0  0  0
  7  9  1  0  0  0  0
  7 17  1  0  0  0  0
  7 18  1  0  0  0  0
  8 19  1  0  0  0  0
  8 20  1  0  0  0  0
  9 21  1  0  0  0  0
  9 22  1  0  0  0  0
M  END
> <PUBCHEM_COMPOUND_CID>
9540

> <PUBCHEM_COMPOUND_CANONICALIZED>
1

> <PUBCHEM_CACTVS_COMPLEXITY>
110

> <PUBCHEM_CACTVS_HBOND_ACCEPTOR>
3

> <PUBCHEM_CACTVS_HBOND_DONOR>
0

> <PUBCHEM_CACTVS_ROTATABLE_BOND>
6

> <PUBCHEM_CACTVS_SUBSKEYS>
AAADccBiAQBAAAAAAAAAAAAAAAAAAAAAAAAAAAAAAAAAAAAAAAAAHQQAAAAACADBAAQAAAIAAAAkAAAABAAAAAAAAAAAAAAAAAAAAAIAgAAAAAAAAAAAAAEQAAAAAAAAAAAAAAAAAAAAAAAAAAAAAAAAAA==

> <PUBCHEM_IUPAC_OPENEYE_NAME>
1-fluoro-6-isothiocyanato-hexane

> <PUBCHEM_IUPAC_CAS_NAME>
1-fluoro-6-isothiocyanatohexane

> <PUBCHEM_IUPAC_NAME>
1-fluoro-6-isothiocyanatohexane

> <PUBCHEM_IUPAC_SYSTEMATIC_NAME>
1-fluoranyl-6-isothiocyanato-hexane

> <PUBCHEM_IUPAC_TRADITIONAL_NAME>
1-fluoro-6-isothiocyanato-hexane

> <PUBCHEM_IUPAC_INCHI>
InChI=1S/C7H12FNS/c8-5-3-1-2-4-6-9-7-10/h1-6H2

> <PUBCHEM_IUPAC_INCHIKEY>
IAEURLMFXYVGGE-UHFFFAOYSA-N

> <PUBCHEM_XLOGP3_AA>
3.4

> <PUBCHEM_EXACT_MASS>
161.067449

> <PUBCHEM_MOLECULAR_FORMULA>
C7H12FNS

> <PUBCHEM_MOLECULAR_WEIGHT>
161.240283

> <PUBCHEM_OPENEYE_CAN_SMILES>
C(CCCF)CCN=C=S

> <PUBCHEM_OPENEYE_ISO_SMILES>
C(CCCF)CCN=C=S

> <PUBCHEM_CACTVS_TPSA>
44.4

> <PUBCHEM_MONOISOTOPIC_WEIGHT>
161.067449

> <PUBCHEM_TOTAL_CHARGE>
0

> <PUBCHEM_HEAVY_ATOM_COUNT>
10

> <PUBCHEM_ATOM_DEF_STEREO_COUNT>
0

> <PUBCHEM_ATOM_UDEF_STEREO_COUNT>
0

> <PUBCHEM_BOND_DEF_STEREO_COUNT>
0

> <PUBCHEM_BOND_UDEF_STEREO_COUNT>
0

> <PUBCHEM_ISOTOPIC_ATOM_COUNT>
0

> <PUBCHEM_COMPONENT_COUNT>
1

> <PUBCHEM_CACTVS_TAUTO_COUNT>
1

> <PUBCHEM_COORDINATE_TYPE>
1
5
255

$$$$

