3630
  -OEChem-06251223332D

 38 40  0     1  0  0  0  0  0999 V2000
    2.0000   -3.3688    0.0000 O   0  0  0  0  0  0  0  0  0  0  0  0
    5.7523   -1.2777    0.0000 N   0  0  0  0  0  0  0  0  0  0  0  0
    2.7104   -1.7474    0.0000 N   0  0  0  0  0  0  0  0  0  0  0  0
    6.0111   -0.3118    0.0000 C   0  0  3  0  0  0  0  0  0  0  0  0
    6.2699    0.6541    0.0000 C   0  0  3  0  0  0  0  0  0  0  0  0
    8.4930   -0.7271    0.0000 C   0  0  3  0  0  0  0  0  0  0  0  0
    7.7158   -1.3564    0.0000 C   0  0  0  0  0  0  0  0  0  0  0  0
    8.1346    0.2065    0.0000 C   0  0  0  0  0  0  0  0  0  0  0  0
    5.5333    1.6367    0.0000 C   0  0  0  0  0  0  0  0  0  0  0  0
    3.6670   -0.1537    0.0000 C   0  0  0  0  0  0  0  0  0  0  0  0
    4.4760   -1.5549    0.0000 C   0  0  0  0  0  0  0  0  0  0  0  0
    3.5624   -1.1482    0.0000 C   0  0  0  0  0  0  0  0  0  0  0  0
    9.4589   -0.9859    0.0000 C   0  0  0  0  0  0  0  0  0  0  0  0
    5.0333    2.5028    0.0000 C   0  0  0  0  0  0  0  0  0  0  0  0
    4.6008   -2.5891    0.0000 C   0  0  0  0  0  0  0  0  0  0  0  0
    3.7628   -3.2078    0.0000 C   0  0  0  0  0  0  0  0  0  0  0  0
    5.5333    3.3688    0.0000 C   0  0  0  0  0  0  0  0  0  0  0  0
    2.8113   -2.7841    0.0000 C   0  0  0  0  0  0  0  0  0  0  0  0
    6.2977   -0.1954    0.0000 H   0  0  0  0  0  0  0  0  0  0  0  0
    9.0617   -0.0954    0.0000 H   0  0  0  0  0  0  0  0  0  0  0  0
    7.3341   -1.8450    0.0000 H   0  0  0  0  0  0  0  0  0  0  0  0
    8.1580   -1.7910    0.0000 H   0  0  0  0  0  0  0  0  0  0  0  0
    8.7461    0.3088    0.0000 H   0  0  0  0  0  0  0  0  0  0  0  0
    8.1562    0.8261    0.0000 H   0  0  0  0  0  0  0  0  0  0  0  0
    3.5647    0.4578    0.0000 H   0  0  0  0  0  0  0  0  0  0  0  0
    3.0472   -0.1726    0.0000 H   0  0  0  0  0  0  0  0  0  0  0  0
    9.2984   -1.5848    0.0000 H   0  0  0  0  0  0  0  0  0  0  0  0
   10.0578   -1.1464    0.0000 H   0  0  0  0  0  0  0  0  0  0  0  0
    9.6194   -0.3871    0.0000 H   0  0  0  0  0  0  0  0  0  0  0  0
    6.1907   -1.7161    0.0000 H   0  0  0  0  0  0  0  0  0  0  0  0
    5.1534   -1.4382    0.0000 H   0  0  0  0  0  0  0  0  0  0  0  0
    4.4133    2.5028    0.0000 H   0  0  0  0  0  0  0  0  0  0  0  0
    5.1701   -2.8347    0.0000 H   0  0  0  0  0  0  0  0  0  0  0  0
    2.1469   -1.4887    0.0000 H   0  0  0  0  0  0  0  0  0  0  0  0
    3.8300   -3.8242    0.0000 H   0  0  0  0  0  0  0  0  0  0  0  0
    6.0703    3.0588    0.0000 H   0  0  0  0  0  0  0  0  0  0  0  0
    5.8433    3.9057    0.0000 H   0  0  0  0  0  0  0  0  0  0  0  0
    4.9964    3.6788    0.0000 H   0  0  0  0  0  0  0  0  0  0  0  0
  1 18  2  0  0  0  0
  2  4  1  0  0  0  0
  2 30  1  0  0  0  0
  2 31  1  0  0  0  0
  3 12  1  0  0  0  0
  3 18  1  0  0  0  0
  3 34  1  0  0  0  0
  4  7  1  0  0  0  0
  4  9  1  0  0  0  0
  4 11  1  0  0  0  0
  5  8  1  0  0  0  0
  5  9  1  0  0  0  0
  5 10  1  0  0  0  0
  5 19  1  0  0  0  0
  6  7  1  0  0  0  0
  6  8  1  0  0  0  0
  6 13  1  0  0  0  0
  6 20  1  0  0  0  0
  7 21  1  0  0  0  0
  7 22  1  0  0  0  0
  8 23  1  0  0  0  0
  8 24  1  0  0  0  0
  9 14  2  3  0  0  0
 10 12  1  0  0  0  0
 10 25  1  0  0  0  0
 10 26  1  0  0  0  0
 11 12  2  0  0  0  0
 11 15  1  0  0  0  0
 13 27  1  0  0  0  0
 13 28  1  0  0  0  0
 13 29  1  0  0  0  0
 14 17  1  0  0  0  0
 14 32  1  0  0  0  0
 15 16  2  0  0  0  0
 15 33  1  0  0  0  0
 16 18  1  0  0  0  0
 16 35  1  0  0  0  0
 17 36  1  0  0  0  0
 17 37  1  0  0  0  0
 17 38  1  0  0  0  0
M  END
> <PUBCHEM_COMPOUND_CID>
3630

> <PUBCHEM_COMPOUND_CANONICALIZED>
1

> <PUBCHEM_CACTVS_COMPLEXITY>
501

> <PUBCHEM_CACTVS_HBOND_ACCEPTOR>
2

> <PUBCHEM_CACTVS_HBOND_DONOR>
2

> <PUBCHEM_CACTVS_ROTATABLE_BOND>
0

> <PUBCHEM_CACTVS_SUBSKEYS>
AAADceBzIAAAAAAAAAAAAAAAAAAAAAAAAAAwQIAAAAAQAACAAAAAHgAQAAAADYiBgAACAALAAACIAiVSUACAAAAgAAAICAAAAEgIAAIAgQAEAAAAlACIgYMQgMAOAAAAAAAAAAAAAASAAAAAAAAAAAAAAA==

> <PUBCHEM_IUPAC_INCHI>
InChI=1S/C15H20N2O/c1-3-11-10-6-9(2)8-15(11,16)12-4-5-14(18)17-13(12)7-10/h3-5,9-10H,6-8,16H2,1-2H3,(H,17,18)

> <PUBCHEM_IUPAC_INCHIKEY>
PWWSISOORXDCMX-UHFFFAOYSA-N

> <PUBCHEM_XLOGP3_AA>
0.7

> <PUBCHEM_EXACT_MASS>
244.157563

> <PUBCHEM_MOLECULAR_FORMULA>
C15H20N2O

> <PUBCHEM_MOLECULAR_WEIGHT>
244.3321

> <PUBCHEM_OPENEYE_CAN_SMILES>
CC=C1C2CC(CC1(C3=C(C2)NC(=O)C=C3)N)C

> <PUBCHEM_OPENEYE_ISO_SMILES>
CC=C1C2CC(CC1(C3=C(C2)NC(=O)C=C3)N)C

> <PUBCHEM_CACTVS_TPSA>
55.1

> <PUBCHEM_MONOISOTOPIC_WEIGHT>
244.157563

> <PUBCHEM_TOTAL_CHARGE>
0

> <PUBCHEM_HEAVY_ATOM_COUNT>
18

> <PUBCHEM_ATOM_DEF_STEREO_COUNT>
0

> <PUBCHEM_ATOM_UDEF_STEREO_COUNT>
3

> <PUBCHEM_BOND_DEF_STEREO_COUNT>
0

> <PUBCHEM_BOND_UDEF_STEREO_COUNT>
1

> <PUBCHEM_ISOTOPIC_ATOM_COUNT>
0

> <PUBCHEM_COMPONENT_COUNT>
1

> <PUBCHEM_CACTVS_TAUTO_COUNT>
5

> <PUBCHEM_COORDINATE_TYPE>
1
5
255

> <PUBCHEM_BONDANNOTATIONS>
11  12  8
11  15  8
15  16  8
16  18  8
4  2  3
3  12  8
3  18  8
5  19  3
6  20  3
9  14  1

$$$$

