47205291
  -OEChem-06241222583D

 29 30  0     0  0  0  0  0  0999 V2000
   -0.8800    1.8239    1.0417 Cl  0  0  0  0  0  0  0  0  0  0  0  0
   -0.1399   -1.2146   -1.2549 O   0  0  0  0  0  0  0  0  0  0  0  0
    1.1814   -1.5529    0.6237 N   0  0  0  0  0  0  0  0  0  0  0  0
    4.2311   -0.0448    0.5823 N   0  0  0  0  0  0  0  0  0  0  0  0
    4.7360    1.1757    0.3341 N   0  0  0  0  0  0  0  0  0  0  0  0
   -1.1903   -1.2416    0.9268 C   0  0  0  0  0  0  0  0  0  0  0  0
    2.4414   -1.6794   -0.0704 C   0  0  0  0  0  0  0  0  0  0  0  0
   -2.3220   -0.4046    0.4238 C   0  0  0  0  0  0  0  0  0  0  0  0
    3.1520   -0.3622   -0.1895 C   0  0  0  0  0  0  0  0  0  0  0  0
   -0.0175   -1.3283   -0.0380 C   0  0  0  0  0  0  0  0  0  0  0  0
   -2.2653    0.9890    0.4392 C   0  0  0  0  0  0  0  0  0  0  0  0
   -3.4553   -1.0510   -0.0695 C   0  0  0  0  0  0  0  0  0  0  0  0
    2.9360    0.7265   -0.9985 C   0  0  0  0  0  0  0  0  0  0  0  0
   -3.3417    1.7362   -0.0388 C   0  0  0  0  0  0  0  0  0  0  0  0
   -4.5319   -0.3038   -0.5475 C   0  0  0  0  0  0  0  0  0  0  0  0
   -4.4751    1.0898   -0.5322 C   0  0  0  0  0  0  0  0  0  0  0  0
    3.9408    1.6420   -0.6325 C   0  0  0  0  0  0  0  0  0  0  0  0
   -0.8611   -0.8723    1.9058 H   0  0  0  0  0  0  0  0  0  0  0  0
   -1.5239   -2.2722    1.1071 H   0  0  0  0  0  0  0  0  0  0  0  0
    2.2686   -2.0943   -1.0696 H   0  0  0  0  0  0  0  0  0  0  0  0
    3.0494   -2.3980    0.4898 H   0  0  0  0  0  0  0  0  0  0  0  0
    1.1898   -1.6245    1.6370 H   0  0  0  0  0  0  0  0  0  0  0  0
   -3.5159   -2.1359   -0.0916 H   0  0  0  0  0  0  0  0  0  0  0  0
    2.1640    0.8425   -1.7451 H   0  0  0  0  0  0  0  0  0  0  0  0
    4.6751   -0.6100    1.2954 H   0  0  0  0  0  0  0  0  0  0  0  0
   -3.3131    2.8229   -0.0339 H   0  0  0  0  0  0  0  0  0  0  0  0
   -5.4142   -0.8069   -0.9322 H   0  0  0  0  0  0  0  0  0  0  0  0
   -5.3133    1.6715   -0.9045 H   0  0  0  0  0  0  0  0  0  0  0  0
    4.1264    2.6295   -1.0298 H   0  0  0  0  0  0  0  0  0  0  0  0
  1 11  1  0  0  0  0
  2 10  2  0  0  0  0
  3  7  1  0  0  0  0
  3 10  1  0  0  0  0
  3 22  1  0  0  0  0
  4  5  1  0  0  0  0
  4  9  1  0  0  0  0
  4 25  1  0  0  0  0
  5 17  2  0  0  0  0
  6  8  1  0  0  0  0
  6 10  1  0  0  0  0
  6 18  1  0  0  0  0
  6 19  1  0  0  0  0
  7  9  1  0  0  0  0
  7 20  1  0  0  0  0
  7 21  1  0  0  0  0
  8 11  1  0  0  0  0
  8 12  2  0  0  0  0
  9 13  2  0  0  0  0
 11 14  2  0  0  0  0
 12 15  1  0  0  0  0
 12 23  1  0  0  0  0
 13 17  1  0  0  0  0
 13 24  1  0  0  0  0
 14 16  1  0  0  0  0
 14 26  1  0  0  0  0
 15 16  2  0  0  0  0
 15 27  1  0  0  0  0
 16 28  1  0  0  0  0
 17 29  1  0  0  0  0
M  END
> <PUBCHEM_COMPOUND_CID>
47205291

> <PUBCHEM_CONFORMER_RMSD>
0.6

> <PUBCHEM_CONFORMER_DIVERSEORDER>
1
205
33
241
274
158
107
42
172
296
22
290
173
230
285
87
276
129
44
306
150
16
120
58
348
232
268
222
21
265
280
318
64
11
260
225
295
168
83
148
313
259
224
17
32
182
55
326
57
323
160
289
218
191
286
159
60
161
97
214
92
157
208
70
219
206
153
73
152
117
257
254
154
112
240
344
84
309
165
252
56
41
128
249
201
75
177
34
282
212
38
239
176
10
144
248
184
8
336
342
236
139
179
51
293
327
102
247
163
258
223
209
82
166
324
151
193
238
79
335
29
308
227
170
354
5
132
294
273
349
270
321
246
237
183
122
65
186
19
110
40
343
81
20
207
18
304
233
231
146
53
109
229
35
242
136
283
346
50
171
196
288
54
164
298
199
329
2
245
66
181
305
93
133
198
77
37
297
251
307
310
138
137
121
68
221
350
187
337
67
312
263
115
216
262
85
202
26
353
123
203
113
30
355
284
48
3
89
90
339
317
332
155
250
100
27
175
130
261
106
96
210
127
103
220
322
267
340
331
244
204
256
217
291
71
215
325
12
188
156
145
328
211
143
195
86
235
281
31
213
287
277
4
352
94
275
95
178
104
347
49
114
301
142
116
264
292
124
279
228
341
253
149
169
316
315
140
105
59
226
167
80
63
330
190
111
108
88
43
194
302
243
271
272
141
13
45
356
314
189
91
78
303
99
174
36
118
311
300
98
101
197
147
69
269
46
180
351
28
338
299
119
126
14
25
125
334
23
131
185
134
52
266
320
15
62
192
47
6
76
200
345
234
162
72
135
39
61
7
9
74
333
24
255
278
319

> <PUBCHEM_MMFF94_PARTIAL_CHARGES>
25
1 -0.18
10 0.57
11 0.18
12 -0.15
13 -0.15
14 -0.15
15 -0.15
16 -0.15
17 0.14
2 -0.57
22 0.37
23 0.15
24 0.15
25 0.27
26 0.15
27 0.15
28 0.15
29 0.15
3 -0.73
4 0.3
5 -0.71
6 0.2
7 0.48
8 -0.14
9 -0.33

> <PUBCHEM_EFFECTIVE_ROTOR_COUNT>
5

> <PUBCHEM_PHARMACOPHORE_FEATURES>
6
1 2 acceptor
1 3 donor
1 4 donor
1 5 acceptor
5 4 5 9 13 17 rings
6 8 11 12 14 15 16 rings

> <PUBCHEM_HEAVY_ATOM_COUNT>
17

> <PUBCHEM_ATOM_DEF_STEREO_COUNT>
0

> <PUBCHEM_ATOM_UDEF_STEREO_COUNT>
0

> <PUBCHEM_BOND_DEF_STEREO_COUNT>
0

> <PUBCHEM_BOND_UDEF_STEREO_COUNT>
0

> <PUBCHEM_ISOTOPIC_ATOM_COUNT>
0

> <PUBCHEM_COMPONENT_COUNT>
1

> <PUBCHEM_CACTVS_TAUTO_COUNT>
4

> <PUBCHEM_CONFORMER_ID>
02D04BAB00000001

> <PUBCHEM_MMFF94_ENERGY>
24.8435

> <PUBCHEM_FEATURE_SELFOVERLAP>
30.446

> <PUBCHEM_SHAPE_FINGERPRINT>
10042902 136 15866908673341765447
10498660 4 18334290976713424888
11128504 68 14996284682699781248
11370993 70 18201720647712147418
11759241 127 18334296495846341759
12633257 1 16128661808494878448
12670546 177 16588314842913603468
13551218 46 9511463333914033397
13675066 3 11959731551286671255
14251710 61 8718828691104756132
14251764 38 17346042285001042165
14787075 74 18270678641621425891
14790565 3 17756701207080381401
15196674 1 18410855477387321192
15239191 94 8070027748678871582
15536298 74 18337668715135949350
17492 89 18338514252537366811
17959699 21 18270402827474739245
18186145 218 18130502062793386319
20300324 65 18260269642402870307
20715895 44 17982461695790471533
212916 134 15482672416196182601
22749437 52 18342449348781022956
22950370 63 7709460545369405183
22959321 54 18410572903030728208
23227448 37 17897734158497526980
23402539 116 18260275126902125254
235170 7 16443338793157899476
23557571 272 18041551464531600614
23559900 14 18265055923476796978
328317 168 18412263925975749221
3472631 163 18265615579849484117
351380 180 18410294709577953600
4028521 119 18334853909502541284
474 4 17988921163151531822
5104073 3 18271522091361516371
537710 114 18334857225201697113
6328613 192 18059283289750126164
9981440 41 18343865506609089739

> <PUBCHEM_SHAPE_MULTIPOLES>
330.91
9.79
2.06
0.98
3.07
0.23
-0.02
3.47
-1.44
0.18
0.15
0.02
0.06
-0.27

> <PUBCHEM_SHAPE_SELFOVERLAP>
691.069

> <PUBCHEM_SHAPE_VOLUME>
187.5

> <PUBCHEM_COORDINATE_TYPE>
2
5
10

$$$$

