3506
  -OEChem-06251223272D

108112  0     1  0  0  0  0  0999 V2000
    8.2591    3.7624    0.0000 O   0  0  0  0  0  0  0  0  0  0  0  0
   11.6550    1.7624    0.0000 O   0  0  0  0  0  0  0  0  0  0  0  0
    9.9912   -0.2377    0.0000 O   0  0  0  0  0  0  0  0  0  0  0  0
    3.7320   -0.7900    0.0000 O   0  0  0  0  0  0  0  0  0  0  0  0
    5.5463   -2.5679    0.0000 O   0  0  0  0  0  0  0  0  0  0  0  0
    4.0430   -1.7076    0.0000 O   0  0  0  0  0  0  0  0  0  0  0  0
   10.0248    5.2124    0.0000 O   0  0  0  0  0  0  0  0  0  0  0  0
   11.0033    5.4186    0.0000 O   0  0  0  0  0  0  0  0  0  0  0  0
    5.5530   -4.2999    0.0000 O   0  0  0  0  0  0  0  0  0  0  0  0
    2.8718    0.7133    0.0000 O   0  0  0  0  0  0  0  0  0  0  0  0
    3.5463   -2.5756    0.0000 O   0  0  0  0  0  0  0  0  0  0  0  0
    2.5530   -4.3115    0.0000 O   0  0  0  0  0  0  0  0  0  0  0  0
    3.5597   -6.0396    0.0000 O   0  0  0  0  0  0  0  0  0  0  0  0
    6.5596   -6.0281    0.0000 O   0  0  0  0  0  0  0  0  0  0  0  0
    9.1251    2.2624    0.0000 C   0  0  3  0  0  0  0  0  0  0  0  0
    9.1251    1.2624    0.0000 C   0  0  3  0  0  0  0  0  0  0  0  0
    7.3931    1.2624    0.0000 C   0  0  3  0  0  0  0  0  0  0  0  0
    6.4831    0.7555    0.0000 C   0  0  3  0  0  0  0  0  0  0  0  0
   10.0713    2.5671    0.0000 C   0  0  3  0  0  0  0  0  0  0  0  0
    8.2591    0.7623    0.0000 C   0  0  0  0  0  0  0  0  0  0  0  0
    8.2591    2.7624    0.0000 C   0  0  3  0  0  0  0  0  0  0  0  0
    6.4750   -0.2861    0.0000 C   0  0  3  0  0  0  0  0  0  0  0  0
   10.0713    0.9576    0.0000 C   0  0  0  0  0  0  0  0  0  0  0  0
    7.3931    2.2624    0.0000 C   0  0  0  0  0  0  0  0  0  0  0  0
   10.6550    1.7624    0.0000 C   0  0  3  0  0  0  0  0  0  0  0  0
    5.5396   -0.8358    0.0000 C   0  0  3  0  0  0  0  0  0  0  0  0
    5.5562    1.3196    0.0000 C   0  0  0  0  0  0  0  0  0  0  0  0
    7.3771   -0.8069    0.0000 C   0  0  0  0  0  0  0  0  0  0  0  0
    9.1251    0.2623    0.0000 C   0  0  0  0  0  0  0  0  0  0  0  0
    9.1251    3.2624    0.0000 C   0  0  0  0  0  0  0  0  0  0  0  0
    8.2752   -0.2792    0.0000 C   0  0  0  0  0  0  0  0  0  0  0  0
   10.3820    3.5176    0.0000 C   0  0  3  0  0  0  0  0  0  0  0  0
    4.6000   -0.2933    0.0000 C   0  0  3  0  0  0  0  0  0  0  0  0
    6.4908    1.7555    0.0000 C   0  0  0  0  0  0  0  0  0  0  0  0
    4.6084    0.7916    0.0000 C   0  0  0  0  0  0  0  0  0  0  0  0
    6.0430   -1.6999    0.0000 C   0  0  0  0  0  0  0  0  0  0  0  0
   11.3605    3.7238    0.0000 C   0  0  0  0  0  0  0  0  0  0  0  0
    5.0430   -1.7038    0.0000 C   0  0  0  0  0  0  0  0  0  0  0  0
    9.7142    4.2619    0.0000 C   0  0  0  0  0  0  0  0  0  0  0  0
   11.6712    4.6743    0.0000 C   0  0  0  0  0  0  0  0  0  0  0  0
    2.8680   -0.2866    0.0000 C   0  0  0  0  0  0  0  0  0  0  0  0
    5.0496   -3.4358    0.0000 C   0  0  3  0  0  0  0  0  0  0  0  0
   12.6497    4.8806    0.0000 C   0  0  0  0  0  0  0  0  0  0  0  0
    4.0496   -3.4397    0.0000 C   0  0  3  0  0  0  0  0  0  0  0  0
    2.0000   -0.7833    0.0000 C   0  0  0  0  0  0  0  0  0  0  0  0
    3.5530   -4.3076    0.0000 C   0  0  3  0  0  0  0  0  0  0  0  0
   12.9603    5.8311    0.0000 C   0  0  0  0  0  0  0  0  0  0  0  0
    5.0563   -5.1678    0.0000 C   0  0  3  0  0  0  0  0  0  0  0  0
    4.0563   -5.1717    0.0000 C   0  0  3  0  0  0  0  0  0  0  0  0
   13.9388    6.0373    0.0000 C   0  0  0  0  0  0  0  0  0  0  0  0
   12.2925    6.5754    0.0000 C   0  0  0  0  0  0  0  0  0  0  0  0
    5.5597   -6.0319    0.0000 C   0  0  0  0  0  0  0  0  0  0  0  0
    7.9300    1.5724    0.0000 H   0  0  0  0  0  0  0  0  0  0  0  0
    9.6339    3.0064    0.0000 H   0  0  0  0  0  0  0  0  0  0  0  0
    8.7960    3.0724    0.0000 H   0  0  0  0  0  0  0  0  0  0  0  0
    6.4774   -0.9061    0.0000 H   0  0  0  0  0  0  0  0  0  0  0  0
    9.8203    0.3907    0.0000 H   0  0  0  0  0  0  0  0  0  0  0  0
   10.6087    0.6484    0.0000 H   0  0  0  0  0  0  0  0  0  0  0  0
    7.1810    2.8450    0.0000 H   0  0  0  0  0  0  0  0  0  0  0  0
    6.7825    2.1547    0.0000 H   0  0  0  0  0  0  0  0  0  0  0  0
   10.9367    1.2100    0.0000 H   0  0  0  0  0  0  0  0  0  0  0  0
    5.9644    1.7862    0.0000 H   0  0  0  0  0  0  0  0  0  0  0  0
    5.1663    1.8016    0.0000 H   0  0  0  0  0  0  0  0  0  0  0  0
    6.9798   -1.2829    0.0000 H   0  0  0  0  0  0  0  0  0  0  0  0
    7.7781   -1.2798    0.0000 H   0  0  0  0  0  0  0  0  0  0  0  0
    8.5145    0.3700    0.0000 H   0  0  0  0  0  0  0  0  0  0  0  0
    8.9131   -0.3203    0.0000 H   0  0  0  0  0  0  0  0  0  0  0  0
    9.7451    3.2624    0.0000 H   0  0  0  0  0  0  0  0  0  0  0  0
    9.1251    3.8824    0.0000 H   0  0  0  0  0  0  0  0  0  0  0  0
    8.5051    3.2624    0.0000 H   0  0  0  0  0  0  0  0  0  0  0  0
    8.8156   -0.5829    0.0000 H   0  0  0  0  0  0  0  0  0  0  0  0
   10.5746    4.1069    0.0000 H   0  0  0  0  0  0  0  0  0  0  0  0
    4.0648    0.0198    0.0000 H   0  0  0  0  0  0  0  0  0  0  0  0
    7.1108    1.7507    0.0000 H   0  0  0  0  0  0  0  0  0  0  0  0
    6.4956    2.3754    0.0000 H   0  0  0  0  0  0  0  0  0  0  0  0
    5.8708    1.7602    0.0000 H   0  0  0  0  0  0  0  0  0  0  0  0
    4.4038    1.3769    0.0000 H   0  0  0  0  0  0  0  0  0  0  0  0
    3.9967    0.6903    0.0000 H   0  0  0  0  0  0  0  0  0  0  0  0
    7.7222    4.0724    0.0000 H   0  0  0  0  0  0  0  0  0  0  0  0
    5.5072   -2.0120    0.0000 H   0  0  0  0  0  0  0  0  0  0  0  0
    6.3550   -2.2356    0.0000 H   0  0  0  0  0  0  0  0  0  0  0  0
    6.5787   -1.3878    0.0000 H   0  0  0  0  0  0  0  0  0  0  0  0
   11.3811    3.1042    0.0000 H   0  0  0  0  0  0  0  0  0  0  0  0
   11.9743    3.6365    0.0000 H   0  0  0  0  0  0  0  0  0  0  0  0
   11.9650    1.2254    0.0000 H   0  0  0  0  0  0  0  0  0  0  0  0
    9.1075    4.1340    0.0000 H   0  0  0  0  0  0  0  0  0  0  0  0
    9.9912   -0.8577    0.0000 H   0  0  0  0  0  0  0  0  0  0  0  0
    4.7376   -2.9001    0.0000 H   0  0  0  0  0  0  0  0  0  0  0  0
   13.0637    4.4191    0.0000 H   0  0  0  0  0  0  0  0  0  0  0  0
    3.4296   -3.4420    0.0000 H   0  0  0  0  0  0  0  0  0  0  0  0
    1.6921   -0.2452    0.0000 H   0  0  0  0  0  0  0  0  0  0  0  0
    1.4619   -1.0912    0.0000 H   0  0  0  0  0  0  0  0  0  0  0  0
    2.3079   -1.3214    0.0000 H   0  0  0  0  0  0  0  0  0  0  0  0
    3.2451   -4.8457    0.0000 H   0  0  0  0  0  0  0  0  0  0  0  0
    5.6763   -5.1654    0.0000 H   0  0  0  0  0  0  0  0  0  0  0  0
    3.4363   -5.1741    0.0000 H   0  0  0  0  0  0  0  0  0  0  0  0
    2.9263   -2.5780    0.0000 H   0  0  0  0  0  0  0  0  0  0  0  0
   12.7540    6.9894    0.0000 H   0  0  0  0  0  0  0  0  0  0  0  0
   11.8784    7.0368    0.0000 H   0  0  0  0  0  0  0  0  0  0  0  0
   11.8310    6.1613    0.0000 H   0  0  0  0  0  0  0  0  0  0  0  0
   14.0667    5.4306    0.0000 H   0  0  0  0  0  0  0  0  0  0  0  0
   14.5455    6.1652    0.0000 H   0  0  0  0  0  0  0  0  0  0  0  0
   13.8110    6.6440    0.0000 H   0  0  0  0  0  0  0  0  0  0  0  0
    4.9779   -6.2462    0.0000 H   0  0  0  0  0  0  0  0  0  0  0  0
    5.6697   -6.6421    0.0000 H   0  0  0  0  0  0  0  0  0  0  0  0
    2.2451   -4.8496    0.0000 H   0  0  0  0  0  0  0  0  0  0  0  0
    3.8717   -6.5754    0.0000 H   0  0  0  0  0  0  0  0  0  0  0  0
    6.8717   -6.5638    0.0000 H   0  0  0  0  0  0  0  0  0  0  0  0
  1 21  1  0  0  0  0
  1 79  1  0  0  0  0
  2 25  1  0  0  0  0
  2 85  1  0  0  0  0
  3 29  1  0  0  0  0
  3 87  1  0  0  0  0
  4 33  1  0  0  0  0
  4 41  1  0  0  0  0
  5 38  1  0  0  0  0
  5 42  1  0  0  0  0
  6 38  2  0  0  0  0
  7 39  2  0  0  0  0
  8 40  2  0  0  0  0
  9 42  1  0  0  0  0
  9 48  1  0  0  0  0
 10 41  2  0  0  0  0
 11 44  1  0  0  0  0
 11 97  1  0  0  0  0
 12 46  1  0  0  0  0
 12106  1  0  0  0  0
 13 49  1  0  0  0  0
 13107  1  0  0  0  0
 14 52  1  0  0  0  0
 14108  1  0  0  0  0
 15 16  1  0  0  0  0
 15 19  1  0  0  0  0
 15 21  1  0  0  0  0
 15 30  1  0  0  0  0
 16 20  1  0  0  0  0
 16 23  1  0  0  0  0
 16 29  1  0  0  0  0
 17 18  1  0  0  0  0
 17 20  1  0  0  0  0
 17 24  1  0  0  0  0
 17 53  1  0  0  0  0
 18 22  1  0  0  0  0
 18 27  1  0  0  0  0
 18 34  1  0  0  0  0
 19 25  1  0  0  0  0
 19 32  1  0  0  0  0
 19 54  1  0  0  0  0
 20 31  2  0  0  0  0
 21 24  1  0  0  0  0
 21 55  1  0  0  0  0
 22 26  1  0  0  0  0
 22 28  1  0  0  0  0
 22 56  1  0  0  0  0
 23 25  1  0  0  0  0
 23 57  1  0  0  0  0
 23 58  1  0  0  0  0
 24 59  1  0  0  0  0
 24 60  1  0  0  0  0
 25 61  1  0  0  0  0
 26 33  1  0  0  0  0
 26 36  1  0  0  0  0
 26 38  1  0  0  0  0
 27 35  1  0  0  0  0
 27 62  1  0  0  0  0
 27 63  1  0  0  0  0
 28 31  1  0  0  0  0
 28 64  1  0  0  0  0
 28 65  1  0  0  0  0
 29 66  1  0  0  0  0
 29 67  1  0  0  0  0
 30 68  1  0  0  0  0
 30 69  1  0  0  0  0
 30 70  1  0  0  0  0
 31 71  1  0  0  0  0
 32 37  1  0  0  0  0
 32 39  1  0  0  0  0
 32 72  1  0  0  0  0
 33 35  1  0  0  0  0
 33 73  1  0  0  0  0
 34 74  1  0  0  0  0
 34 75  1  0  0  0  0
 34 76  1  0  0  0  0
 35 77  1  0  0  0  0
 35 78  1  0  0  0  0
 36 80  1  0  0  0  0
 36 81  1  0  0  0  0
 36 82  1  0  0  0  0
 37 40  1  0  0  0  0
 37 83  1  0  0  0  0
 37 84  1  0  0  0  0
 39 86  1  0  0  0  0
 40 43  1  0  0  0  0
 41 45  1  0  0  0  0
 42 44  1  0  0  0  0
 42 88  1  0  0  0  0
 43 47  2  0  0  0  0
 43 89  1  0  0  0  0
 44 46  1  0  0  0  0
 44 90  1  0  0  0  0
 45 91  1  0  0  0  0
 45 92  1  0  0  0  0
 45 93  1  0  0  0  0
 46 49  1  0  0  0  0
 46 94  1  0  0  0  0
 47 50  1  0  0  0  0
 47 51  1  0  0  0  0
 48 49  1  0  0  0  0
 48 52  1  0  0  0  0
 48 95  1  0  0  0  0
 49 96  1  0  0  0  0
 50101  1  0  0  0  0
 50102  1  0  0  0  0
 50103  1  0  0  0  0
 51 98  1  0  0  0  0
 51 99  1  0  0  0  0
 51100  1  0  0  0  0
 52104  1  0  0  0  0
 52105  1  0  0  0  0
M  END
> <PUBCHEM_COMPOUND_CID>
3506

> <PUBCHEM_COMPOUND_CANONICALIZED>
1

> <PUBCHEM_CACTVS_COMPLEXITY>
1470

> <PUBCHEM_CACTVS_HBOND_ACCEPTOR>
14

> <PUBCHEM_CACTVS_HBOND_DONOR>
7

> <PUBCHEM_CACTVS_ROTATABLE_BOND>
12

> <PUBCHEM_CACTVS_SUBSKEYS>
AAADcfB8PAAAAAAAAAAAAAAAAAAAAYAAAAA0YIEAAAAAAGCAAAAAGgAACAAADxSwgAMCCAAABgCIAqjSiAAAAAAgAAAACAEAAEgREBYAAQAiQAAF4AAPAQPL7PzPgAAAAAAAAADAAAYAADAAAYAADAAAAA==

> <PUBCHEM_IUPAC_OPENEYE_NAME>
[3,4,5-trihydroxy-6-(hydroxymethyl)tetrahydropyran-2-yl] 3-acetoxy-17-(1-formyl-5-methyl-3-oxo-hex-4-enyl)-12,16-dihydroxy-14-(hydroxymethyl)-4,10,13-trimethyl-2,3,5,6,9,11,12,15,16,17-decahydro-1H-cyclopenta[a]phenanthrene-4-carboxylate

> <PUBCHEM_IUPAC_CAS_NAME>
3-acetyloxy-12,16-dihydroxy-14-(hydroxymethyl)-4,10,13-trimethyl-17-(6-methyl-1,4-dioxohept-5-en-2-yl)-2,3,5,6,9,11,12,15,16,17-decahydro-1H-cyclopenta[a]phenanthrene-4-carboxylic acid [3,4,5-trihydroxy-6-(hydroxymethyl)-2-oxanyl] ester

> <PUBCHEM_IUPAC_NAME>
[3,4,5-trihydroxy-6-(hydroxymethyl)oxan-2-yl] 3-acetyloxy-12,16-dihydroxy-14-(hydroxymethyl)-4,10,13-trimethyl-17-(6-methyl-1,4-dioxohept-5-en-2-yl)-2,3,5,6,9,11,12,15,16,17-decahydro-1H-cyclopenta[a]phenanthrene-4-carboxylate

> <PUBCHEM_IUPAC_SYSTEMATIC_NAME>
[6-(hydroxymethyl)-3,4,5-tris(oxidanyl)oxan-2-yl] 3-acetyloxy-14-(hydroxymethyl)-4,10,13-trimethyl-17-[6-methyl-1,4-bis(oxidanylidene)hept-5-en-2-yl]-12,16-bis(oxidanyl)-2,3,5,6,9,11,12,15,16,17-decahydro-1H-cyclopenta[a]phenanthrene-4-carboxylate

> <PUBCHEM_IUPAC_TRADITIONAL_NAME>
3-acetoxy-17-(1-formyl-3-keto-5-methyl-hex-4-enyl)-12,16-dihydroxy-4,10,13-trimethyl-14-methylol-2,3,5,6,9,11,12,15,16,17-decahydro-1H-cyclopenta[a]phenanthrene-4-carboxylic acid (3,4,5-trihydroxy-6-methylol-tetrahydropyran-2-yl) ester

> <PUBCHEM_IUPAC_INCHI>
InChI=1S/C38H56O14/c1-18(2)11-21(43)12-20(15-39)29-24(44)14-38(17-41)22-7-8-26-35(4,23(22)13-27(45)37(29,38)6)10-9-28(50-19(3)42)36(26,5)34(49)52-33-32(48)31(47)30(46)25(16-40)51-33/h7,11,15,20,23-33,40-41,44-48H,8-10,12-14,16-17H2,1-6H3

> <PUBCHEM_IUPAC_INCHIKEY>
ICEIDITWEARXBX-UHFFFAOYSA-N

> <PUBCHEM_XLOGP3_AA>
0

> <PUBCHEM_EXACT_MASS>
736.367006

> <PUBCHEM_MOLECULAR_FORMULA>
C38H56O14

> <PUBCHEM_MOLECULAR_WEIGHT>
736.84284

> <PUBCHEM_OPENEYE_CAN_SMILES>
CC(=CC(=O)CC(C=O)C1C(CC2(C1(C(CC3C2=CCC4C3(CCC(C4(C)C(=O)OC5C(C(C(C(O5)CO)O)O)O)OC(=O)C)C)O)C)CO)O)C

> <PUBCHEM_OPENEYE_ISO_SMILES>
CC(=CC(=O)CC(C=O)C1C(CC2(C1(C(CC3C2=CCC4C3(CCC(C4(C)C(=O)OC5C(C(C(C(O5)CO)O)O)O)OC(=O)C)C)O)C)CO)O)C

> <PUBCHEM_CACTVS_TPSA>
238

> <PUBCHEM_MONOISOTOPIC_WEIGHT>
736.367006

> <PUBCHEM_TOTAL_CHARGE>
0

> <PUBCHEM_HEAVY_ATOM_COUNT>
52

> <PUBCHEM_ATOM_DEF_STEREO_COUNT>
0

> <PUBCHEM_ATOM_UDEF_STEREO_COUNT>
16

> <PUBCHEM_BOND_DEF_STEREO_COUNT>
0

> <PUBCHEM_BOND_UDEF_STEREO_COUNT>
0

> <PUBCHEM_ISOTOPIC_ATOM_COUNT>
0

> <PUBCHEM_COMPONENT_COUNT>
1

> <PUBCHEM_CACTVS_TAUTO_COUNT>
15

> <PUBCHEM_COORDINATE_TYPE>
1
5
255

> <PUBCHEM_BONDANNOTATIONS>
21  1  3
44  11  3
46  12  3
49  13  3
15  30  3
16  29  3
17  24  3
18  34  3
19  32  3
25  2  3
22  28  3
26  36  3
32  39  3
33  4  3
48  52  3
42  5  3

$$$$

