10501
  -OEChem-06261204373D

 82 87  0     1  0  0  0  0  0999 V2000
    3.4483    2.3706    1.9457 O   0  0  0  0  0  0  0  0  0  0  0  0
   -0.6329    3.5505    0.6576 O   0  0  0  0  0  0  0  0  0  0  0  0
    2.1348   -0.3526   -1.6626 O   0  0  0  0  0  0  0  0  0  0  0  0
   -4.3284    0.7917   -0.6894 O   0  0  0  0  0  0  0  0  0  0  0  0
    0.1545    3.6978   -1.9125 O   0  0  0  0  0  0  0  0  0  0  0  0
    6.3930   -2.8239   -1.8237 O   0  0  0  0  0  0  0  0  0  0  0  0
   -4.9657   -0.6640    1.0171 O   0  0  0  0  0  0  0  0  0  0  0  0
    8.3552   -3.1155   -0.6572 O   0  0  0  0  0  0  0  0  0  0  0  0
   -6.4869   -0.1932   -2.2889 O   0  0  0  0  0  0  0  0  0  0  0  0
   -8.7098   -1.1034   -0.6625 O   0  0  0  0  0  0  0  0  0  0  0  0
   -7.8674   -2.8965    1.4089 O   0  0  0  0  0  0  0  0  0  0  0  0
    3.2051    1.0365    1.4970 C   0  0  1  0  0  0  0  0  0  0  0  0
    1.7016    0.9098    1.0582 C   0  0  2  0  0  0  0  0  0  0  0  0
    4.2363    0.6351    0.3986 C   0  0  2  0  0  0  0  0  0  0  0  0
    1.4346    1.5888   -0.3173 C   0  0  2  0  0  0  0  0  0  0  0  0
   -0.0945    1.5928   -0.7383 C   0  0  2  0  0  0  0  0  0  0  0  0
   -0.9756    2.1768    0.4139 C   0  0  1  0  0  0  0  0  0  0  0  0
    2.3904    1.0187   -1.3964 C   0  0  1  0  0  0  0  0  0  0  0  0
    3.8561    1.1888   -0.9937 C   0  0  0  0  0  0  0  0  0  0  0  0
    4.2122   -0.9168    0.5175 C   0  0  2  0  0  0  0  0  0  0  0  0
    3.5396    0.0700    2.6573 C   0  0  0  0  0  0  0  0  0  0  0  0
    0.7675    1.5011    2.1355 C   0  0  0  0  0  0  0  0  0  0  0  0
   -0.7008    1.4349    1.7352 C   0  0  0  0  0  0  0  0  0  0  0  0
    4.1879   -1.1688    2.0312 C   0  0  0  0  0  0  0  0  0  0  0  0
   -0.6326    0.2019   -1.1713 C   0  0  0  0  0  0  0  0  0  0  0  0
   -2.4802    2.1265    0.0880 C   0  0  0  0  0  0  0  0  0  0  0  0
    5.6570    1.1867    0.7182 C   0  0  0  0  0  0  0  0  0  0  0  0
   -2.1445    0.1479   -1.4196 C   0  0  0  0  0  0  0  0  0  0  0  0
   -2.9650    0.7293   -0.2791 C   0  0  2  0  0  0  0  0  0  0  0  0
   -0.1949    2.5224   -1.9373 C   0  0  0  0  0  0  0  0  0  0  0  0
    5.3065   -1.6639   -0.1759 C   0  0  0  0  0  0  0  0  0  0  0  0
    5.1390   -2.1922   -1.5450 C   0  0  0  0  0  0  0  0  0  0  0  0
    6.5144   -1.9469    0.3044 C   0  0  0  0  0  0  0  0  0  0  0  0
   -5.0197   -0.4217   -0.3871 C   0  0  1  0  0  0  0  0  0  0  0  0
    7.2163   -2.6895   -0.7435 C   0  0  0  0  0  0  0  0  0  0  0  0
   -6.4632   -0.2597   -0.8633 C   0  0  2  0  0  0  0  0  0  0  0  0
   -7.3392   -1.4309   -0.4240 C   0  0  1  0  0  0  0  0  0  0  0  0
   -5.6836   -1.8217    1.4523 C   0  0  1  0  0  0  0  0  0  0  0  0
   -7.1629   -1.7077    1.0666 C   0  0  2  0  0  0  0  0  0  0  0  0
   -5.0026   -3.1096    0.9853 C   0  0  0  0  0  0  0  0  0  0  0  0
    1.4538   -0.1551    0.9816 H   0  0  0  0  0  0  0  0  0  0  0  0
    1.7219    2.6445   -0.1987 H   0  0  0  0  0  0  0  0  0  0  0  0
    2.2426    1.5502   -2.3427 H   0  0  0  0  0  0  0  0  0  0  0  0
    4.0742    2.2654   -1.0160 H   0  0  0  0  0  0  0  0  0  0  0  0
    4.4969    0.7341   -1.7571 H   0  0  0  0  0  0  0  0  0  0  0  0
    3.2714   -1.3312    0.1524 H   0  0  0  0  0  0  0  0  0  0  0  0
    2.6638   -0.2213    3.2436 H   0  0  0  0  0  0  0  0  0  0  0  0
    4.2360    0.5351    3.3665 H   0  0  0  0  0  0  0  0  0  0  0  0
    0.8840    0.9634    3.0823 H   0  0  0  0  0  0  0  0  0  0  0  0
    1.0317    2.5447    2.3436 H   0  0  0  0  0  0  0  0  0  0  0  0
   -0.9977    0.3826    1.6820 H   0  0  0  0  0  0  0  0  0  0  0  0
   -1.2884    1.8908    2.5427 H   0  0  0  0  0  0  0  0  0  0  0  0
    3.6053   -2.0689    2.2621 H   0  0  0  0  0  0  0  0  0  0  0  0
    5.1730   -1.3116    2.4852 H   0  0  0  0  0  0  0  0  0  0  0  0
   -0.1620   -0.1251   -2.1048 H   0  0  0  0  0  0  0  0  0  0  0  0
   -0.3936   -0.5473   -0.4082 H   0  0  0  0  0  0  0  0  0  0  0  0
   -3.0669    2.5118    0.9331 H   0  0  0  0  0  0  0  0  0  0  0  0
   -2.7150    2.8233   -0.7288 H   0  0  0  0  0  0  0  0  0  0  0  0
    5.6588    2.2823    0.7499 H   0  0  0  0  0  0  0  0  0  0  0  0
    6.3789    0.9021   -0.0553 H   0  0  0  0  0  0  0  0  0  0  0  0
    6.0404    0.8380    1.6819 H   0  0  0  0  0  0  0  0  0  0  0  0
   -2.4327   -0.8936   -1.6052 H   0  0  0  0  0  0  0  0  0  0  0  0
   -2.3887    0.6777   -2.3496 H   0  0  0  0  0  0  0  0  0  0  0  0
   -2.8500    0.0896    0.6018 H   0  0  0  0  0  0  0  0  0  0  0  0
    3.3604    2.9680    1.1848 H   0  0  0  0  0  0  0  0  0  0  0  0
   -0.5894    2.0912   -2.8725 H   0  0  0  0  0  0  0  0  0  0  0  0
   -0.9406    4.0835   -0.0943 H   0  0  0  0  0  0  0  0  0  0  0  0
    1.7134   -0.7720   -0.8995 H   0  0  0  0  0  0  0  0  0  0  0  0
    4.9692   -1.4109   -2.2889 H   0  0  0  0  0  0  0  0  0  0  0  0
    4.3438   -2.9410   -1.6056 H   0  0  0  0  0  0  0  0  0  0  0  0
    6.9511   -1.6978    1.2555 H   0  0  0  0  0  0  0  0  0  0  0  0
   -4.5362   -1.2379   -0.9355 H   0  0  0  0  0  0  0  0  0  0  0  0
   -6.8878    0.6824   -0.4939 H   0  0  0  0  0  0  0  0  0  0  0  0
   -7.1303   -2.3258   -1.0220 H   0  0  0  0  0  0  0  0  0  0  0  0
   -5.6228   -1.8242    2.5477 H   0  0  0  0  0  0  0  0  0  0  0  0
   -7.6213   -0.8894    1.6357 H   0  0  0  0  0  0  0  0  0  0  0  0
   -5.9058    0.5399   -2.5549 H   0  0  0  0  0  0  0  0  0  0  0  0
   -5.4178   -3.9849    1.4943 H   0  0  0  0  0  0  0  0  0  0  0  0
   -5.1062   -3.2652   -0.0926 H   0  0  0  0  0  0  0  0  0  0  0  0
   -3.9287   -3.0672    1.1975 H   0  0  0  0  0  0  0  0  0  0  0  0
   -8.7986   -0.8988   -1.6092 H   0  0  0  0  0  0  0  0  0  0  0  0
   -7.5910   -3.6037    0.8021 H   0  0  0  0  0  0  0  0  0  0  0  0
  1 12  1  0  0  0  0
  1 65  1  0  0  0  0
  2 17  1  0  0  0  0
  2 67  1  0  0  0  0
  3 18  1  0  0  0  0
  3 68  1  0  0  0  0
  4 29  1  0  0  0  0
  4 34  1  0  0  0  0
  5 30  2  0  0  0  0
  6 32  1  0  0  0  0
  6 35  1  0  0  0  0
  7 34  1  0  0  0  0
  7 38  1  0  0  0  0
  8 35  2  0  0  0  0
  9 36  1  0  0  0  0
  9 77  1  0  0  0  0
 10 37  1  0  0  0  0
 10 81  1  0  0  0  0
 11 39  1  0  0  0  0
 11 82  1  0  0  0  0
 12 13  1  0  0  0  0
 12 14  1  0  0  0  0
 12 21  1  0  0  0  0
 13 15  1  0  0  0  0
 13 22  1  0  0  0  0
 13 41  1  0  0  0  0
 14 19  1  0  0  0  0
 14 20  1  0  0  0  0
 14 27  1  0  0  0  0
 15 16  1  0  0  0  0
 15 18  1  0  0  0  0
 15 42  1  0  0  0  0
 16 17  1  0  0  0  0
 16 25  1  0  0  0  0
 16 30  1  0  0  0  0
 17 23  1  0  0  0  0
 17 26  1  0  0  0  0
 18 19  1  0  0  0  0
 18 43  1  0  0  0  0
 19 44  1  0  0  0  0
 19 45  1  0  0  0  0
 20 24  1  0  0  0  0
 20 31  1  0  0  0  0
 20 46  1  0  0  0  0
 21 24  1  0  0  0  0
 21 47  1  0  0  0  0
 21 48  1  0  0  0  0
 22 23  1  0  0  0  0
 22 49  1  0  0  0  0
 22 50  1  0  0  0  0
 23 51  1  0  0  0  0
 23 52  1  0  0  0  0
 24 53  1  0  0  0  0
 24 54  1  0  0  0  0
 25 28  1  0  0  0  0
 25 55  1  0  0  0  0
 25 56  1  0  0  0  0
 26 29  1  0  0  0  0
 26 57  1  0  0  0  0
 26 58  1  0  0  0  0
 27 59  1  0  0  0  0
 27 60  1  0  0  0  0
 27 61  1  0  0  0  0
 28 29  1  0  0  0  0
 28 62  1  0  0  0  0
 28 63  1  0  0  0  0
 29 64  1  0  0  0  0
 30 66  1  0  0  0  0
 31 32  1  0  0  0  0
 31 33  2  0  0  0  0
 32 69  1  0  0  0  0
 32 70  1  0  0  0  0
 33 35  1  0  0  0  0
 33 71  1  0  0  0  0
 34 36  1  0  0  0  0
 34 72  1  0  0  0  0
 36 37  1  0  0  0  0
 36 73  1  0  0  0  0
 37 39  1  0  0  0  0
 37 74  1  0  0  0  0
 38 39  1  0  0  0  0
 38 40  1  0  0  0  0
 38 75  1  0  0  0  0
 39 76  1  0  0  0  0
 40 78  1  0  0  0  0
 40 79  1  0  0  0  0
 40 80  1  0  0  0  0
M  END
> <PUBCHEM_COMPOUND_CID>
10501

> <PUBCHEM_CONFORMER_RMSD>
1

> <PUBCHEM_CONFORMER_DIVERSEORDER>
6
113
20
148
38
64
84
118
69
9
155
131
11
105
94
154
17
119
108
39
127
146
10
73
114
41
141
135
124
145
45
70
60
147
99
121
28
107
79
4
31
48
106
52
66
152
156
80
150
56
102
139
12
76
90
74
2
14
65
24
98
143
134
55
125
136
123
112
1
120
75
142
18
57
22
97
88
40
54
5
101
34
59
151
58
109
33
83
149
72
29
117
111
89
81
77
78
32
46
51
115
35
126
128
153
122
104
21
50
13
43
30
25
157
26
91
100
49
42
63
110
85
137
36
103
86
93
61
138
140
7
16
53
8
3
96
144
130
92
47
95
68
82
27
133
132
19
87
129
67
15
23
62
71
44
116
37

> <PUBCHEM_MMFF94_PARTIAL_CHARGES>
35
1 -0.68
10 -0.68
11 -0.68
12 0.28
16 0.06
17 0.28
18 0.28
2 -0.68
20 0.14
29 0.28
3 -0.68
30 0.45
31 -0.28
32 0.42
33 -0.14
34 0.56
35 0.71
36 0.28
37 0.28
38 0.28
39 0.28
4 -0.56
5 -0.57
6 -0.43
65 0.4
66 0.06
67 0.4
68 0.4
7 -0.56
71 0.15
77 0.4
8 -0.57
81 0.4
82 0.4
9 -0.68

> <PUBCHEM_EFFECTIVE_ROTOR_COUNT>
7.8

> <PUBCHEM_PHARMACOPHORE_FEATURES>
22
1 1 acceptor
1 1 donor
1 10 acceptor
1 10 donor
1 11 acceptor
1 11 donor
1 2 acceptor
1 2 donor
1 3 acceptor
1 3 donor
1 4 acceptor
1 5 acceptor
1 7 acceptor
1 8 acceptor
1 9 acceptor
1 9 donor
5 12 14 20 21 24 rings
5 6 31 32 33 35 rings
6 12 13 14 15 18 19 rings
6 13 15 16 17 22 23 rings
6 16 17 25 26 28 29 rings
6 7 34 36 37 38 39 rings

> <PUBCHEM_HEAVY_ATOM_COUNT>
40

> <PUBCHEM_ATOM_DEF_STEREO_COUNT>
9

> <PUBCHEM_ATOM_UDEF_STEREO_COUNT>
5

> <PUBCHEM_BOND_DEF_STEREO_COUNT>
0

> <PUBCHEM_BOND_UDEF_STEREO_COUNT>
0

> <PUBCHEM_ISOTOPIC_ATOM_COUNT>
0

> <PUBCHEM_COMPONENT_COUNT>
1

> <PUBCHEM_CACTVS_TAUTO_COUNT>
1

> <PUBCHEM_CONFORMER_ID>
0000290500000006

> <PUBCHEM_MMFF94_ENERGY>
144.8027

> <PUBCHEM_FEATURE_SELFOVERLAP>
111.899

> <PUBCHEM_SHAPE_FINGERPRINT>
10677351 27 17274811442677225035
11135609 12 18408044001160806338
117089 54 18262227949901057486
11796584 16 17989215819709928113
1200032 147 15213873584867952464
12013929 27 18193548107751182078
12342043 65 18261398879489214080
12422481 6 15140950798783638529
12633257 1 16732990799226335252
131258 43 18339629089046058524
13383661 66 18264196084415584658
13673619 4 18333733559136556852
13690498 29 17346881174150163487
13782708 43 18261677059740341604
13811026 1 18411141341984255802
13947930 73 18260835895086656470
14068700 675 17846782953207681356
14294032 229 7709159279405389205
15183329 4 15698002938127806119
15238133 3 7060081282209619106
15510800 12 18408886252115131179
15721738 202 18333730235180029410
19246450 95 15937249065807045107
2026 5 18413389848065271491
21424621 283 7997967964107649437
21987483 16 16807877342953061647
23559900 14 17844817997586222293
23569914 2 10158006772235326534
25269216 80 13254499922408064577
2838139 119 9871478599186001937
3004659 81 17489872622329023439
3383291 50 18261396675902589294
3680242 22 17240205417276792276
392239 28 16805045120599208973
4112364 45 5400789583738752250
44249763 50 9007048085452541985
4461854 278 17022906770502947390
44880168 125 18338520734402243239
474113 269 17676500470991209677
513202 73 18113338643661223185
5372103 7 11383827164889454538
54039377 194 17967530221048797502
6691757 9 4967028875422143756
86090 222 18409447003050961802
9962374 69 18041574558966344982
999808 66 18114742741442505510

> <PUBCHEM_SHAPE_MULTIPOLES>
758.62
21.87
3.68
2.2
20.98
0.29
0.37
26.76
-1.89
-1.72
-0.36
-0.91
-0.29
3.54

> <PUBCHEM_SHAPE_SELFOVERLAP>
1640.751

> <PUBCHEM_SHAPE_VOLUME>
409.5

> <PUBCHEM_COORDINATE_TYPE>
2
5
10

$$$$

