13226
  -OEChem-06261207552D

 22 21  0     0  0  0  0  0  0999 V2000
    4.7690    3.6200    0.0000 S   0  0  0  0  0  0  0  0  0  0  0  0
    5.6350    5.1200    0.0000 Na  0  3  0  0  0  0  0  0  0  0  0  0
    4.7690    4.6200    0.0000 O   0  5  0  0  0  0  0  0  0  0  0  0
    3.7690    3.6200    0.0000 O   0  0  0  0  0  0  0  0  0  0  0  0
    5.7690    3.6200    0.0000 O   0  0  0  0  0  0  0  0  0  0  0  0
    4.7690    2.6200    0.0000 C   0  0  0  0  0  0  0  0  0  0  0  0
    3.9030    2.1200    0.0000 C   0  0  0  0  0  0  0  0  0  0  0  0
    5.6350    1.1200    0.0000 C   0  0  0  0  0  0  0  0  0  0  0  0
    5.6350    2.1200    0.0000 C   0  0  0  0  0  0  0  0  0  0  0  0
    3.9030    1.1200    0.0000 C   0  0  0  0  0  0  0  0  0  0  0  0
    4.7690    0.6200    0.0000 C   0  0  0  0  0  0  0  0  0  0  0  0
    3.0369    2.6200    0.0000 C   0  0  0  0  0  0  0  0  0  0  0  0
    6.5010    0.6200    0.0000 C   0  0  0  0  0  0  0  0  0  0  0  0
    6.1719    2.4300    0.0000 H   0  0  0  0  0  0  0  0  0  0  0  0
    3.3660    0.8100    0.0000 H   0  0  0  0  0  0  0  0  0  0  0  0
    4.7690    0.0000    0.0000 H   0  0  0  0  0  0  0  0  0  0  0  0
    3.3469    3.1569    0.0000 H   0  0  0  0  0  0  0  0  0  0  0  0
    2.5000    2.9300    0.0000 H   0  0  0  0  0  0  0  0  0  0  0  0
    2.7269    2.0831    0.0000 H   0  0  0  0  0  0  0  0  0  0  0  0
    6.1910    0.0831    0.0000 H   0  0  0  0  0  0  0  0  0  0  0  0
    7.0380    0.3100    0.0000 H   0  0  0  0  0  0  0  0  0  0  0  0
    6.8110    1.1569    0.0000 H   0  0  0  0  0  0  0  0  0  0  0  0
  1  3  1  0  0  0  0
  1  4  2  0  0  0  0
  1  5  2  0  0  0  0
  1  6  1  0  0  0  0
  6  7  2  0  0  0  0
  6  9  1  0  0  0  0
  7 10  1  0  0  0  0
  7 12  1  0  0  0  0
  8  9  2  0  0  0  0
  8 11  1  0  0  0  0
  8 13  1  0  0  0  0
  9 14  1  0  0  0  0
 10 11  2  0  0  0  0
 10 15  1  0  0  0  0
 11 16  1  0  0  0  0
 12 17  1  0  0  0  0
 12 18  1  0  0  0  0
 12 19  1  0  0  0  0
 13 20  1  0  0  0  0
 13 21  1  0  0  0  0
 13 22  1  0  0  0  0
M  CHG  2   2   1   3  -1
M  END
> <PUBCHEM_COMPOUND_CID>
13226

> <PUBCHEM_COMPOUND_CANONICALIZED>
1

> <PUBCHEM_CACTVS_COMPLEXITY>
226

> <PUBCHEM_CACTVS_HBOND_ACCEPTOR>
3

> <PUBCHEM_CACTVS_HBOND_DONOR>
0

> <PUBCHEM_CACTVS_ROTATABLE_BOND>
0

> <PUBCHEM_CACTVS_SUBSKEYS>
AAADccBwMCBAAAAAAAAAAAAAAAAAAAAAAAAwAAAAAAAAAAABAAAAGAQAAAAADACAWAAyAYAAAAKAAiBCAHBCAEAgAAAIiBgAAIgIICKAERCAIAAggAAIiAcAgAAOQAAAgAAEAACAAAEAAAgAAAAAAAAAAA==

> <PUBCHEM_IUPAC_OPENEYE_NAME>
sodium 2,5-dimethylbenzenesulfonate

> <PUBCHEM_IUPAC_CAS_NAME>
sodium 2,5-dimethylbenzenesulfonate

> <PUBCHEM_IUPAC_NAME>
sodium 2,5-dimethylbenzenesulfonate

> <PUBCHEM_IUPAC_SYSTEMATIC_NAME>
sodium 2,5-dimethylbenzenesulfonate

> <PUBCHEM_IUPAC_TRADITIONAL_NAME>
sodium 2,5-dimethylbesylate

> <PUBCHEM_IUPAC_INCHI>
InChI=1S/C8H10O3S.Na/c1-6-3-4-7(2)8(5-6)12(9,10)11;/h3-5H,1-2H3,(H,9,10,11);/q;+1/p-1

> <PUBCHEM_IUPAC_INCHIKEY>
SDCULNUHRZODAC-UHFFFAOYSA-M

> <PUBCHEM_EXACT_MASS>
208.017009

> <PUBCHEM_MOLECULAR_FORMULA>
C8H9NaO3S

> <PUBCHEM_MOLECULAR_WEIGHT>
208.210029

> <PUBCHEM_OPENEYE_CAN_SMILES>
CC1=CC(=C(C=C1)C)S(=O)(=O)[O-].[Na+]

> <PUBCHEM_OPENEYE_ISO_SMILES>
CC1=CC(=C(C=C1)C)S(=O)(=O)[O-].[Na+]

> <PUBCHEM_CACTVS_TPSA>
65.6

> <PUBCHEM_MONOISOTOPIC_WEIGHT>
208.017009

> <PUBCHEM_TOTAL_CHARGE>
0

> <PUBCHEM_HEAVY_ATOM_COUNT>
13

> <PUBCHEM_ATOM_DEF_STEREO_COUNT>
0

> <PUBCHEM_ATOM_UDEF_STEREO_COUNT>
0

> <PUBCHEM_BOND_DEF_STEREO_COUNT>
0

> <PUBCHEM_BOND_UDEF_STEREO_COUNT>
0

> <PUBCHEM_ISOTOPIC_ATOM_COUNT>
0

> <PUBCHEM_COMPONENT_COUNT>
2

> <PUBCHEM_CACTVS_TAUTO_COUNT>
1

> <PUBCHEM_COORDINATE_TYPE>
1
5
255

> <PUBCHEM_BONDANNOTATIONS>
10  11  8
6  7  8
6  9  8
7  10  8
8  11  8
8  9  8

$$$$

