9472
  -OEChem-06261203443D

 38 38  0     0  0  0  0  0  0999 V2000
    7.4990    0.1370    0.6093 F   0  0  0  0  0  0  0  0  0  0  0  0
   -1.6625   -0.6547   -1.7984 O   0  0  0  0  0  0  0  0  0  0  0  0
    2.3511   -0.9960   -0.0351 C   0  0  0  0  0  0  0  0  0  0  0  0
    0.8698   -0.7449    0.2547 C   0  0  0  0  0  0  0  0  0  0  0  0
    3.2390    0.2249    0.2248 C   0  0  0  0  0  0  0  0  0  0  0  0
    0.0442   -2.0219    0.0626 C   0  0  0  0  0  0  0  0  0  0  0  0
    4.7249    0.0536   -0.1063 C   0  0  0  0  0  0  0  0  0  0  0  0
   -1.4477   -1.7949    0.3180 C   0  0  0  0  0  0  0  0  0  0  0  0
    5.5445    1.3306    0.0889 C   0  0  0  0  0  0  0  0  0  0  0  0
   -2.0823   -0.8100   -0.6540 C   0  0  0  0  0  0  0  0  0  0  0  0
    7.0146    1.0997   -0.2195 C   0  0  0  0  0  0  0  0  0  0  0  0
   -3.2659   -0.0236   -0.2035 C   0  0  0  0  0  0  0  0  0  0  0  0
   -4.1138   -0.5805    0.7277 C   0  0  0  0  0  0  0  0  0  0  0  0
   -3.4674    1.2306   -0.7349 C   0  0  0  0  0  0  0  0  0  0  0  0
   -5.2212    0.1552    1.1495 C   0  0  0  0  0  0  0  0  0  0  0  0
   -4.5748    1.9663   -0.3130 C   0  0  0  0  0  0  0  0  0  0  0  0
   -5.4516    1.4286    0.6292 C   0  0  0  0  0  0  0  0  0  0  0  0
    2.4661   -1.3062   -1.0810 H   0  0  0  0  0  0  0  0  0  0  0  0
    2.7090   -1.8286    0.5830 H   0  0  0  0  0  0  0  0  0  0  0  0
    0.5100    0.0534   -0.4035 H   0  0  0  0  0  0  0  0  0  0  0  0
    0.7532   -0.3888    1.2855 H   0  0  0  0  0  0  0  0  0  0  0  0
    3.1442    0.5126    1.2796 H   0  0  0  0  0  0  0  0  0  0  0  0
    2.8482    1.0672   -0.3604 H   0  0  0  0  0  0  0  0  0  0  0  0
    0.1899   -2.4021   -0.9559 H   0  0  0  0  0  0  0  0  0  0  0  0
    0.4059   -2.7974    0.7485 H   0  0  0  0  0  0  0  0  0  0  0  0
    5.1348   -0.7479    0.5202 H   0  0  0  0  0  0  0  0  0  0  0  0
    4.8216   -0.2790   -1.1473 H   0  0  0  0  0  0  0  0  0  0  0  0
   -1.5706   -1.4323    1.3447 H   0  0  0  0  0  0  0  0  0  0  0  0
   -1.9789   -2.7485    0.2211 H   0  0  0  0  0  0  0  0  0  0  0  0
    5.1553    2.1289   -0.5526 H   0  0  0  0  0  0  0  0  0  0  0  0
    5.4460    1.6605    1.1295 H   0  0  0  0  0  0  0  0  0  0  0  0
    7.5961    2.0111   -0.0546 H   0  0  0  0  0  0  0  0  0  0  0  0
    7.1632    0.7666   -1.2509 H   0  0  0  0  0  0  0  0  0  0  0  0
   -3.9663   -1.5753    1.1353 H   0  0  0  0  0  0  0  0  0  0  0  0
   -2.7899    1.6634   -1.4648 H   0  0  0  0  0  0  0  0  0  0  0  0
   -5.9063   -0.2648    1.8802 H   0  0  0  0  0  0  0  0  0  0  0  0
   -4.7539    2.9585   -0.7171 H   0  0  0  0  0  0  0  0  0  0  0  0
   -6.3141    2.0012    0.9572 H   0  0  0  0  0  0  0  0  0  0  0  0
  1 11  1  0  0  0  0
  2 10  2  0  0  0  0
  3  4  1  0  0  0  0
  3  5  1  0  0  0  0
  3 18  1  0  0  0  0
  3 19  1  0  0  0  0
  4  6  1  0  0  0  0
  4 20  1  0  0  0  0
  4 21  1  0  0  0  0
  5  7  1  0  0  0  0
  5 22  1  0  0  0  0
  5 23  1  0  0  0  0
  6  8  1  0  0  0  0
  6 24  1  0  0  0  0
  6 25  1  0  0  0  0
  7  9  1  0  0  0  0
  7 26  1  0  0  0  0
  7 27  1  0  0  0  0
  8 10  1  0  0  0  0
  8 28  1  0  0  0  0
  8 29  1  0  0  0  0
  9 11  1  0  0  0  0
  9 30  1  0  0  0  0
  9 31  1  0  0  0  0
 10 12  1  0  0  0  0
 11 32  1  0  0  0  0
 11 33  1  0  0  0  0
 12 13  2  0  0  0  0
 12 14  1  0  0  0  0
 13 15  1  0  0  0  0
 13 34  1  0  0  0  0
 14 16  2  0  0  0  0
 14 35  1  0  0  0  0
 15 17  2  0  0  0  0
 15 36  1  0  0  0  0
 16 17  1  0  0  0  0
 16 37  1  0  0  0  0
 17 38  1  0  0  0  0
M  END
> <PUBCHEM_COMPOUND_CID>
9472

> <PUBCHEM_CONFORMER_RMSD>
1

> <PUBCHEM_CONFORMER_DIVERSEORDER>
1
99
3
688
58
25
514
266
715
9
66
124
647
677
146
55
515
15
86
174
242
278
122
207
586
39
148
52
5
303
28
45
292
64
457
199
675
329
716
585
265
95
552
4
20
16
509
2
403
450
401
446
554
17
456
473
356
30
560
695
57
325
413
280
315
534
581
7
18
369
646
11
238
314
205
302
53
573
187
672
186
61
110
641
42
13
351
681
84
518
170
176
630
474
41
650
422
6
498
621
668
549
466
418
21
618
193
226
19
158
409
248
728
197
459
219
210
241
551
270
118
524
201
149
184
152

> <PUBCHEM_MMFF94_PARTIAL_CHARGES>
16
1 -0.34
10 0.42
11 0.34
12 0.09
13 -0.15
14 -0.15
15 -0.15
16 -0.15
17 -0.15
2 -0.57
34 0.15
35 0.15
36 0.15
37 0.15
38 0.15
8 0.06

> <PUBCHEM_EFFECTIVE_ROTOR_COUNT>
9

> <PUBCHEM_PHARMACOPHORE_FEATURES>
2
1 2 acceptor
6 12 13 14 15 16 17 rings

> <PUBCHEM_HEAVY_ATOM_COUNT>
17

> <PUBCHEM_ATOM_DEF_STEREO_COUNT>
0

> <PUBCHEM_ATOM_UDEF_STEREO_COUNT>
0

> <PUBCHEM_BOND_DEF_STEREO_COUNT>
0

> <PUBCHEM_BOND_UDEF_STEREO_COUNT>
0

> <PUBCHEM_ISOTOPIC_ATOM_COUNT>
0

> <PUBCHEM_COMPONENT_COUNT>
1

> <PUBCHEM_CACTVS_TAUTO_COUNT>
2

> <PUBCHEM_CONFORMER_ID>
0000250000000001

> <PUBCHEM_MMFF94_ENERGY>
24.1271

> <PUBCHEM_FEATURE_SELFOVERLAP>
10.148

> <PUBCHEM_SHAPE_FINGERPRINT>
10 15 18060133228315608968
100836 57 18410290307299655294
106641 1 18341039762875081387
10730089 173 18333448755302008368
12555020 224 8214135232200973209
12596602 18 16988849388551248568
13167372 99 18413108356129458248
13964095 4 6266907840117000403
14123256 34 9727630626880037484
14251752 14 18334295388235350464
15183329 4 16153423974077261606
15501527 16 18411136935321202290
15716309 27 13470690339156333464
15778101 99 18408319977724894098
15880784 105 10592041371448960926
17780758 139 12247682694872217327
17857418 61 8286208249371255676
17870717 6 5978386110574177317
193927 3 10951764226668019411
200 152 10879990255322759967
20281389 69 18413109438223742688
20374829 77 7997972357975166095
20526848 3 18335415789819585320
20621476 66 18411134711066453460
20645477 56 18409731746439118982
21623969 137 12895362092725727752
21756936 100 18410297990590407695
22224240 67 17917989473716574779
23198884 109 16153423956575684577
23403322 49 8646766694994316679
25122255 55 10015582830689976952
270888 7 18338237184354792217
2838139 119 18260555506741556364
2916195 48 18410012122035804354
293599 30 18335420166681065834
3009799 131 16081089269203115866
5104073 3 17916863646512862235
5718773 13 10375568388491512001
7062679 6 18342453729964039732

> <PUBCHEM_SHAPE_MULTIPOLES>
336.71
17.78
1.87
0.98
29.79
0.05
0.18
-10.93
-3.47
-1.07
0.05
-0.91
0.04
0.07

> <PUBCHEM_SHAPE_SELFOVERLAP>
666.675

> <PUBCHEM_SHAPE_VOLUME>
200.1

> <PUBCHEM_COORDINATE_TYPE>
2
5
10

$$$$

