51090926
  -OEChem-06241223002D

 43 44  0     1  0  0  0  0  0999 V2000
    9.2169    3.9250    0.0000 F   0  0  0  0  0  0  0  0  0  0  0  0
    9.4381    2.5282    0.0000 F   0  0  0  0  0  0  0  0  0  0  0  0
    7.8201    3.7037    0.0000 F   0  0  0  0  0  0  0  0  0  0  0  0
    2.8660    0.5750    0.0000 O   0  0  0  0  0  0  0  0  0  0  0  0
    7.0468    2.4114    0.0000 N   0  0  3  0  0  0  0  0  0  0  0  0
    4.5981    0.5750    0.0000 N   0  0  0  0  0  0  0  0  0  0  0  0
    5.4641    2.0750    0.0000 C   0  0  3  0  0  0  0  0  0  0  0  0
    5.5686    3.0696    0.0000 C   0  0  0  0  0  0  0  0  0  0  0  0
    6.3776    1.6683    0.0000 C   0  0  0  0  0  0  0  0  0  0  0  0
    6.5468    3.2775    0.0000 C   0  0  0  0  0  0  0  0  0  0  0  0
    4.5981    1.5750    0.0000 C   0  0  0  0  0  0  0  0  0  0  0  0
    8.0413    2.3069    0.0000 C   0  0  0  0  0  0  0  0  0  0  0  0
    8.6291    3.1159    0.0000 C   0  0  0  0  0  0  0  0  0  0  0  0
    3.7320    0.0750    0.0000 C   0  0  0  0  0  0  0  0  0  0  0  0
    3.7320   -0.9250    0.0000 C   0  0  0  0  0  0  0  0  0  0  0  0
    2.8660   -1.4250    0.0000 C   0  0  0  0  0  0  0  0  0  0  0  0
    4.5981   -1.4250    0.0000 C   0  0  0  0  0  0  0  0  0  0  0  0
    2.8660   -2.4250    0.0000 C   0  0  0  0  0  0  0  0  0  0  0  0
    3.7320   -2.9250    0.0000 C   0  0  0  0  0  0  0  0  0  0  0  0
    4.5981   -2.4250    0.0000 C   0  0  0  0  0  0  0  0  0  0  0  0
    2.0000   -0.9250    0.0000 C   0  0  0  0  0  0  0  0  0  0  0  0
    3.7320   -3.9250    0.0000 C   0  0  0  0  0  0  0  0  0  0  0  0
    4.9441    2.4127    0.0000 H   0  0  0  0  0  0  0  0  0  0  0  0
    5.5038    3.6862    0.0000 H   0  0  0  0  0  0  0  0  0  0  0  0
    4.9486    3.0696    0.0000 H   0  0  0  0  0  0  0  0  0  0  0  0
    6.0677    1.1314    0.0000 H   0  0  0  0  0  0  0  0  0  0  0  0
    6.8792    1.3039    0.0000 H   0  0  0  0  0  0  0  0  0  0  0  0
    7.1132    3.5296    0.0000 H   0  0  0  0  0  0  0  0  0  0  0  0
    6.3552    3.8671    0.0000 H   0  0  0  0  0  0  0  0  0  0  0  0
    4.3860    2.1576    0.0000 H   0  0  0  0  0  0  0  0  0  0  0  0
    3.9875    1.4674    0.0000 H   0  0  0  0  0  0  0  0  0  0  0  0
    7.8704    1.7109    0.0000 H   0  0  0  0  0  0  0  0  0  0  0  0
    8.5986    2.0351    0.0000 H   0  0  0  0  0  0  0  0  0  0  0  0
    5.1350    0.2650    0.0000 H   0  0  0  0  0  0  0  0  0  0  0  0
    5.1350   -1.1150    0.0000 H   0  0  0  0  0  0  0  0  0  0  0  0
    2.3291   -2.7350    0.0000 H   0  0  0  0  0  0  0  0  0  0  0  0
    5.1350   -2.7350    0.0000 H   0  0  0  0  0  0  0  0  0  0  0  0
    2.3100   -0.3880    0.0000 H   0  0  0  0  0  0  0  0  0  0  0  0
    1.4631   -0.6150    0.0000 H   0  0  0  0  0  0  0  0  0  0  0  0
    1.6900   -1.4619    0.0000 H   0  0  0  0  0  0  0  0  0  0  0  0
    3.1120   -3.9250    0.0000 H   0  0  0  0  0  0  0  0  0  0  0  0
    3.7320   -4.5450    0.0000 H   0  0  0  0  0  0  0  0  0  0  0  0
    4.3520   -3.9250    0.0000 H   0  0  0  0  0  0  0  0  0  0  0  0
  1 13  1  0  0  0  0
  2 13  1  0  0  0  0
  3 13  1  0  0  0  0
  4 14  2  0  0  0  0
  5  9  1  0  0  0  0
  5 10  1  0  0  0  0
  5 12  1  0  0  0  0
  6 11  1  0  0  0  0
  6 14  1  0  0  0  0
  6 34  1  0  0  0  0
  7  8  1  0  0  0  0
  7  9  1  0  0  0  0
  7 11  1  0  0  0  0
  7 23  1  0  0  0  0
  8 10  1  0  0  0  0
  8 24  1  0  0  0  0
  8 25  1  0  0  0  0
  9 26  1  0  0  0  0
  9 27  1  0  0  0  0
 10 28  1  0  0  0  0
 10 29  1  0  0  0  0
 11 30  1  0  0  0  0
 11 31  1  0  0  0  0
 12 13  1  0  0  0  0
 12 32  1  0  0  0  0
 12 33  1  0  0  0  0
 14 15  1  0  0  0  0
 15 16  2  0  0  0  0
 15 17  1  0  0  0  0
 16 18  1  0  0  0  0
 16 21  1  0  0  0  0
 17 20  2  0  0  0  0
 17 35  1  0  0  0  0
 18 19  2  0  0  0  0
 18 36  1  0  0  0  0
 19 20  1  0  0  0  0
 19 22  1  0  0  0  0
 20 37  1  0  0  0  0
 21 38  1  0  0  0  0
 21 39  1  0  0  0  0
 21 40  1  0  0  0  0
 22 41  1  0  0  0  0
 22 42  1  0  0  0  0
 22 43  1  0  0  0  0
M  END
> <PUBCHEM_COMPOUND_CID>
51090926

> <PUBCHEM_COMPOUND_CANONICALIZED>
1

> <PUBCHEM_CACTVS_COMPLEXITY>
386

> <PUBCHEM_CACTVS_HBOND_ACCEPTOR>
5

> <PUBCHEM_CACTVS_HBOND_DONOR>
1

> <PUBCHEM_CACTVS_ROTATABLE_BOND>
4

> <PUBCHEM_CACTVS_SUBSKEYS>
AAADceB7IYAAAAAAAAAAAAAAAAAAAWAAAAAwAAAAAAAAAAABAAAAHwAQAAAADQDBmBQyAIPAAACIAiFSEACCAAAkAAAIiIEIBMgIIDKA1RGEIQhglgCIiYcYiMCOwAACAAAQAACAAAQAACAAAAAAAAAAAA==

> <PUBCHEM_IUPAC_OPENEYE_NAME>
2,4-dimethyl-N-[[1-(2,2,2-trifluoroethyl)pyrrolidin-3-yl]methyl]benzamide

> <PUBCHEM_IUPAC_CAS_NAME>
2,4-dimethyl-N-[[1-(2,2,2-trifluoroethyl)-3-pyrrolidinyl]methyl]benzamide

> <PUBCHEM_IUPAC_NAME>
2,4-dimethyl-N-[[1-(2,2,2-trifluoroethyl)pyrrolidin-3-yl]methyl]benzamide

> <PUBCHEM_IUPAC_SYSTEMATIC_NAME>
2,4-dimethyl-N-[[1-[2,2,2-tris(fluoranyl)ethyl]pyrrolidin-3-yl]methyl]benzamide

> <PUBCHEM_IUPAC_TRADITIONAL_NAME>
2,4-dimethyl-N-[[1-(2,2,2-trifluoroethyl)pyrrolidin-3-yl]methyl]benzamide

> <PUBCHEM_IUPAC_INCHI>
InChI=1S/C16H21F3N2O/c1-11-3-4-14(12(2)7-11)15(22)20-8-13-5-6-21(9-13)10-16(17,18)19/h3-4,7,13H,5-6,8-10H2,1-2H3,(H,20,22)

> <PUBCHEM_IUPAC_INCHIKEY>
DZYFSPCNRJDFEL-UHFFFAOYSA-N

> <PUBCHEM_XLOGP3_AA>
3.5

> <PUBCHEM_EXACT_MASS>
314.160598

> <PUBCHEM_MOLECULAR_FORMULA>
C16H21F3N2O

> <PUBCHEM_MOLECULAR_WEIGHT>
314.34595

> <PUBCHEM_OPENEYE_CAN_SMILES>
CC1=CC(=C(C=C1)C(=O)NCC2CCN(C2)CC(F)(F)F)C

> <PUBCHEM_OPENEYE_ISO_SMILES>
CC1=CC(=C(C=C1)C(=O)NCC2CCN(C2)CC(F)(F)F)C

> <PUBCHEM_CACTVS_TPSA>
32.3

> <PUBCHEM_MONOISOTOPIC_WEIGHT>
314.160598

> <PUBCHEM_TOTAL_CHARGE>
0

> <PUBCHEM_HEAVY_ATOM_COUNT>
22

> <PUBCHEM_ATOM_DEF_STEREO_COUNT>
0

> <PUBCHEM_ATOM_UDEF_STEREO_COUNT>
1

> <PUBCHEM_BOND_DEF_STEREO_COUNT>
0

> <PUBCHEM_BOND_UDEF_STEREO_COUNT>
0

> <PUBCHEM_ISOTOPIC_ATOM_COUNT>
0

> <PUBCHEM_COMPONENT_COUNT>
1

> <PUBCHEM_CACTVS_TAUTO_COUNT>
5

> <PUBCHEM_COORDINATE_TYPE>
1
5
255

> <PUBCHEM_BONDANNOTATIONS>
15  16  8
15  17  8
16  18  8
17  20  8
18  19  8
19  20  8
7  11  3

$$$$

