583427
  -OEChem-06241222452D

 19 19  0     0  0  0  0  0  0999 V2000
    3.7320   -1.6550    0.0000 Se  0  0  0  0  0  0  0  0  0  0  0  0
    3.7320    2.3450    0.0000 N   0  0  0  0  0  0  0  0  0  0  0  0
    5.4641   -2.6550    0.0000 N   0  0  0  0  0  0  0  0  0  0  0  0
    2.8660    0.8450    0.0000 C   0  0  0  0  0  0  0  0  0  0  0  0
    3.7320    1.3450    0.0000 C   0  0  0  0  0  0  0  0  0  0  0  0
    2.8660   -0.1550    0.0000 C   0  0  0  0  0  0  0  0  0  0  0  0
    4.5981    0.8450    0.0000 C   0  0  0  0  0  0  0  0  0  0  0  0
    3.7320   -0.6550    0.0000 C   0  0  0  0  0  0  0  0  0  0  0  0
    2.0000    1.3450    0.0000 C   0  0  0  0  0  0  0  0  0  0  0  0
    4.5981   -0.1550    0.0000 C   0  0  0  0  0  0  0  0  0  0  0  0
    4.5981   -2.1550    0.0000 C   0  0  0  0  0  0  0  0  0  0  0  0
    2.3291   -0.4650    0.0000 H   0  0  0  0  0  0  0  0  0  0  0  0
    5.1350    1.1550    0.0000 H   0  0  0  0  0  0  0  0  0  0  0  0
    2.3100    1.8819    0.0000 H   0  0  0  0  0  0  0  0  0  0  0  0
    1.4631    1.6550    0.0000 H   0  0  0  0  0  0  0  0  0  0  0  0
    1.6900    0.8081    0.0000 H   0  0  0  0  0  0  0  0  0  0  0  0
    5.1350   -0.4650    0.0000 H   0  0  0  0  0  0  0  0  0  0  0  0
    4.2690    2.6550    0.0000 H   0  0  0  0  0  0  0  0  0  0  0  0
    3.1951    2.6550    0.0000 H   0  0  0  0  0  0  0  0  0  0  0  0
  1  8  1  0  0  0  0
  1 11  1  0  0  0  0
  2  5  1  0  0  0  0
  2 18  1  0  0  0  0
  2 19  1  0  0  0  0
  3 11  3  0  0  0  0
  4  5  2  0  0  0  0
  4  6  1  0  0  0  0
  4  9  1  0  0  0  0
  5  7  1  0  0  0  0
  6  8  2  0  0  0  0
  6 12  1  0  0  0  0
  7 10  2  0  0  0  0
  7 13  1  0  0  0  0
  8 10  1  0  0  0  0
  9 14  1  0  0  0  0
  9 15  1  0  0  0  0
  9 16  1  0  0  0  0
 10 17  1  0  0  0  0
M  END
> <PUBCHEM_COMPOUND_CID>
583427

> <PUBCHEM_COMPOUND_CANONICALIZED>
1

> <PUBCHEM_CACTVS_COMPLEXITY>
172

> <PUBCHEM_CACTVS_HBOND_ACCEPTOR>
2

> <PUBCHEM_CACTVS_HBOND_DONOR>
1

> <PUBCHEM_CACTVS_ROTATABLE_BOND>
1

> <PUBCHEM_CACTVS_SUBSKEYS>
AAADccBzAAAAAAAAIAAAAAAAAAAAAAAAAAAwAAAAAAAAAAABAAAAHACQAAAADAiBGAAywIBAAACQAiRCQACCAAAgAgAIiAAAZIgIICKAkZGAIABgkAAIyAcQgAAOAAAAAAACAAAAAAAAAAQAAAAAAAAAAA==

> <PUBCHEM_IUPAC_OPENEYE_NAME>
(4-amino-3-methyl-phenyl) selenocyanate

> <PUBCHEM_IUPAC_CAS_NAME>
selenocyanic acid (4-amino-3-methylphenyl) ester

> <PUBCHEM_IUPAC_NAME>
(4-amino-3-methylphenyl) selenocyanate

> <PUBCHEM_IUPAC_SYSTEMATIC_NAME>
(4-azanyl-3-methyl-phenyl) selenocyanate

> <PUBCHEM_IUPAC_TRADITIONAL_NAME>
selenocyanic acid (4-amino-3-methyl-phenyl) ester

> <PUBCHEM_IUPAC_INCHI>
InChI=1S/C8H8N2Se/c1-6-4-7(11-5-9)2-3-8(6)10/h2-4H,10H2,1H3

> <PUBCHEM_IUPAC_INCHIKEY>
NQFMJOMZATWVDA-UHFFFAOYSA-N

> <PUBCHEM_EXACT_MASS>
211.98527

> <PUBCHEM_MOLECULAR_FORMULA>
C8H8N2Se

> <PUBCHEM_MOLECULAR_WEIGHT>
211.12252

> <PUBCHEM_OPENEYE_CAN_SMILES>
CC1=C(C=CC(=C1)[Se]C#N)N

> <PUBCHEM_OPENEYE_ISO_SMILES>
CC1=C(C=CC(=C1)[Se]C#N)N

> <PUBCHEM_CACTVS_TPSA>
49.8

> <PUBCHEM_MONOISOTOPIC_WEIGHT>
211.98527

> <PUBCHEM_TOTAL_CHARGE>
0

> <PUBCHEM_HEAVY_ATOM_COUNT>
11

> <PUBCHEM_ATOM_DEF_STEREO_COUNT>
0

> <PUBCHEM_ATOM_UDEF_STEREO_COUNT>
0

> <PUBCHEM_BOND_DEF_STEREO_COUNT>
0

> <PUBCHEM_BOND_UDEF_STEREO_COUNT>
0

> <PUBCHEM_ISOTOPIC_ATOM_COUNT>
0

> <PUBCHEM_COMPONENT_COUNT>
1

> <PUBCHEM_CACTVS_TAUTO_COUNT>
1

> <PUBCHEM_COORDINATE_TYPE>
1
5
255

> <PUBCHEM_BONDANNOTATIONS>
4  5  8
4  6  8
5  7  8
6  8  8
7  10  8
8  10  8

$$$$

