17396254
  -OEChem-06241222553D

 44 46  0     0  0  0  0  0  0999 V2000
    2.7892    0.2664    1.1037 O   0  0  0  0  0  0  0  0  0  0  0  0
   -1.0976   -2.4257   -0.7972 O   0  0  0  0  0  0  0  0  0  0  0  0
   -6.8132    1.7960    0.1910 O   0  0  0  0  0  0  0  0  0  0  0  0
    0.4073   -0.8797    0.1252 N   0  0  0  0  0  0  0  0  0  0  0  0
   -5.5937   -0.2202    0.1104 N   0  0  0  0  0  0  0  0  0  0  0  0
    1.6275   -1.5993    0.1404 C   0  0  0  0  0  0  0  0  0  0  0  0
   -1.9205   -0.3232   -0.2373 C   0  0  0  0  0  0  0  0  0  0  0  0
    2.7939   -1.0116    0.6298 C   0  0  0  0  0  0  0  0  0  0  0  0
   -0.8510   -1.3045   -0.3238 C   0  0  0  0  0  0  0  0  0  0  0  0
   -4.2696    0.1990   -0.0226 C   0  0  0  0  0  0  0  0  0  0  0  0
   -3.2440   -0.7430   -0.1049 C   0  0  0  0  0  0  0  0  0  0  0  0
   -1.6224    1.0385   -0.2877 C   0  0  0  0  0  0  0  0  0  0  0  0
    1.6545   -2.9088   -0.3395 C   0  0  0  0  0  0  0  0  0  0  0  0
    3.9875   -1.7334    0.6390 C   0  0  0  0  0  0  0  0  0  0  0  0
   -3.9713    1.5607   -0.0730 C   0  0  0  0  0  0  0  0  0  0  0  0
   -2.6479    1.9806   -0.2055 C   0  0  0  0  0  0  0  0  0  0  0  0
    2.8481   -3.6306   -0.3300 C   0  0  0  0  0  0  0  0  0  0  0  0
    4.0146   -3.0428    0.1593 C   0  0  0  0  0  0  0  0  0  0  0  0
    3.6118    1.1861    0.4774 C   0  0  0  0  0  0  0  0  0  0  0  0
    3.6636    1.2406   -0.9155 C   0  0  0  0  0  0  0  0  0  0  0  0
    4.3894    2.0586    1.2387 C   0  0  0  0  0  0  0  0  0  0  0  0
   -6.7460    0.5712    0.2075 C   0  0  0  0  0  0  0  0  0  0  0  0
    4.4926    2.1678   -1.5469 C   0  0  0  0  0  0  0  0  0  0  0  0
    5.2185    2.9857    0.6073 C   0  0  0  0  0  0  0  0  0  0  0  0
    5.2702    3.0403   -0.7856 C   0  0  0  0  0  0  0  0  0  0  0  0
   -7.9915   -0.2688    0.3397 C   0  0  0  0  0  0  0  0  0  0  0  0
    0.4875    0.0479    0.5329 H   0  0  0  0  0  0  0  0  0  0  0  0
   -3.4831   -1.8033   -0.0596 H   0  0  0  0  0  0  0  0  0  0  0  0
   -0.6129    1.4131   -0.4287 H   0  0  0  0  0  0  0  0  0  0  0  0
    0.7985   -3.4361   -0.7341 H   0  0  0  0  0  0  0  0  0  0  0  0
    4.9036   -1.2955    1.0267 H   0  0  0  0  0  0  0  0  0  0  0  0
   -4.7098    2.3482   -0.0175 H   0  0  0  0  0  0  0  0  0  0  0  0
   -2.4158    3.0407   -0.2536 H   0  0  0  0  0  0  0  0  0  0  0  0
    2.8706   -4.6506   -0.7029 H   0  0  0  0  0  0  0  0  0  0  0  0
    4.9433   -3.6057    0.1689 H   0  0  0  0  0  0  0  0  0  0  0  0
   -5.7293   -1.2286    0.1399 H   0  0  0  0  0  0  0  0  0  0  0  0
    3.0555    0.5856   -1.5333 H   0  0  0  0  0  0  0  0  0  0  0  0
    4.3532    2.0201    2.3240 H   0  0  0  0  0  0  0  0  0  0  0  0
    4.5298    2.2132   -2.6314 H   0  0  0  0  0  0  0  0  0  0  0  0
    5.8239    3.6652    1.2002 H   0  0  0  0  0  0  0  0  0  0  0  0
    5.9149    3.7629   -1.2772 H   0  0  0  0  0  0  0  0  0  0  0  0
   -8.8667    0.3791    0.4407 H   0  0  0  0  0  0  0  0  0  0  0  0
   -8.1119   -0.8932   -0.5499 H   0  0  0  0  0  0  0  0  0  0  0  0
   -7.9179   -0.9052    1.2261 H   0  0  0  0  0  0  0  0  0  0  0  0
  1  8  1  0  0  0  0
  1 19  1  0  0  0  0
  2  9  2  0  0  0  0
  3 22  2  0  0  0  0
  4  6  1  0  0  0  0
  4  9  1  0  0  0  0
  4 27  1  0  0  0  0
  5 10  1  0  0  0  0
  5 22  1  0  0  0  0
  5 36  1  0  0  0  0
  6  8  1  0  0  0  0
  6 13  2  0  0  0  0
  7  9  1  0  0  0  0
  7 11  2  0  0  0  0
  7 12  1  0  0  0  0
  8 14  2  0  0  0  0
 10 11  1  0  0  0  0
 10 15  2  0  0  0  0
 11 28  1  0  0  0  0
 12 16  2  0  0  0  0
 12 29  1  0  0  0  0
 13 17  1  0  0  0  0
 13 30  1  0  0  0  0
 14 18  1  0  0  0  0
 14 31  1  0  0  0  0
 15 16  1  0  0  0  0
 15 32  1  0  0  0  0
 16 33  1  0  0  0  0
 17 18  2  0  0  0  0
 17 34  1  0  0  0  0
 18 35  1  0  0  0  0
 19 20  2  0  0  0  0
 19 21  1  0  0  0  0
 20 23  1  0  0  0  0
 20 37  1  0  0  0  0
 21 24  2  0  0  0  0
 21 38  1  0  0  0  0
 22 26  1  0  0  0  0
 23 25  2  0  0  0  0
 23 39  1  0  0  0  0
 24 25  1  0  0  0  0
 24 40  1  0  0  0  0
 25 41  1  0  0  0  0
 26 42  1  0  0  0  0
 26 43  1  0  0  0  0
 26 44  1  0  0  0  0
M  END
> <PUBCHEM_COMPOUND_CID>
17396254

> <PUBCHEM_CONFORMER_RMSD>
0.8

> <PUBCHEM_CONFORMER_DIVERSEORDER>
3
158
156
151
95
131
16
20
101
45
46
142
154
72
49
157
143
70
30
33
69
96
125
136
53
114
43
35
135
99
37
31
81
155
36
117
153
78
92
150
12
104
57
141
51
159
58
134
138
62
2
55
17
79
132
118
100
98
146
9
14
83
52
15
149
21
93
8
66
76
22
39
144
89
54
94
44
38
32
90
75
133
84
67
59
139
109
25
64
73
56
112
26
110
97
60
107
106
121
47
11
145
116
152
10
87
122
115
61
85
68
5
80
127
74
129
6
91
86
82
111
123
19
27
126
18
29
63
23
42
128
120
77
137
103
147
105
1
24
88
40
13
41
113
28
4
50
130
148
124
48
102
7
65
140
119
34
71
108

> <PUBCHEM_MMFF94_PARTIAL_CHARGES>
41
1 -0.17
10 0.12
11 -0.15
12 -0.15
13 -0.15
14 -0.15
15 -0.15
16 -0.15
17 -0.15
18 -0.15
19 0.08
2 -0.57
20 -0.15
21 -0.15
22 0.57
23 -0.15
24 -0.15
25 -0.15
26 0.06
27 0.37
28 0.15
29 0.15
3 -0.57
30 0.15
31 0.15
32 0.15
33 0.15
34 0.15
35 0.15
36 0.37
37 0.15
38 0.15
39 0.15
4 -0.55
40 0.15
41 0.15
5 -0.55
6 0.12
7 0.09
8 0.08
9 0.54

> <PUBCHEM_EFFECTIVE_ROTOR_COUNT>
7

> <PUBCHEM_PHARMACOPHORE_FEATURES>
8
1 1 acceptor
1 2 acceptor
1 3 acceptor
1 4 donor
1 5 donor
6 19 20 21 23 24 25 rings
6 6 8 13 14 17 18 rings
6 7 10 11 12 15 16 rings

> <PUBCHEM_HEAVY_ATOM_COUNT>
26

> <PUBCHEM_ATOM_DEF_STEREO_COUNT>
0

> <PUBCHEM_ATOM_UDEF_STEREO_COUNT>
0

> <PUBCHEM_BOND_DEF_STEREO_COUNT>
0

> <PUBCHEM_BOND_UDEF_STEREO_COUNT>
0

> <PUBCHEM_ISOTOPIC_ATOM_COUNT>
0

> <PUBCHEM_COMPONENT_COUNT>
1

> <PUBCHEM_CACTVS_TAUTO_COUNT>
4

> <PUBCHEM_CONFORMER_ID>
0109721E00000003

> <PUBCHEM_MMFF94_ENERGY>
93.9845

> <PUBCHEM_FEATURE_SELFOVERLAP>
40.594

> <PUBCHEM_SHAPE_FINGERPRINT>
10165383 225 18339078195091950588
10411042 1 17977666743299984826
10483366 6 18341032096516791716
10554248 39 18115317812189028917
12166972 35 18116997891209466578
12616971 3 18041293157157065559
12730499 353 18409722946240871394
12788726 201 17168136866962318809
13533116 47 18409166644965252837
13540713 5 18190201021829604158
13878862 14 18268732643183511805
13955234 65 18411702127506606482
14114211 68 18339065009373416884
14170010 4 18336550508164633762
14294032 229 18047466730073867538
14461889 52 18130500826222555427
14790565 3 17979350854950874108
14849402 71 18342738555242114050
15183329 4 10591759909721135423
15198563 99 17326332126303418270
15439362 3 18410854323138221630
15840311 113 18270677693056165189
15961568 22 17917709089218822788
17844677 252 18266454489793090185
18785283 64 18341336677900881666
19304671 126 17241320262492574136
19427546 62 18411419501209953162
1979834 28 18272653428797545764
20567600 9 18410844482904286892
21033648 29 18118131260523613568
21033650 10 14996268241402137371
21049683 271 18198336455004011830
21130935 74 18411974798528250299
21133410 127 18131636664716260004
21365058 113 17973430290252849750
21792934 111 18339933731207887977
22149856 69 18334568067351070043
2303208 19 5906041587272865717
23081809 10 18040159539657844981
23522609 53 17823118134700197161
23559900 14 18193001636621416851
249057 25 17822572836840270579
3411729 13 18342739602855132706
34797466 226 17967806163759003735
350125 39 18337954596712331774
397830 11 17988630871334989379
4073 2 18271803502705345819
444735 82 18341047502211788005
45377200 153 15720242661608388015
46194498 28 18340486785002537510
469060 322 17908970020429697170
474 4 18202567254965791626
484985 159 9045611785149517940
5104073 3 18341326795112348193
513532 50 18334564768425926644
5912855 24 18188498965103108983
7808743 9 18123192295371385576
9849439 229 18264778649478917656
9962374 69 18337965578954978127
9981440 41 18197220257069289674

> <PUBCHEM_SHAPE_MULTIPOLES>
507.5
17.04
4.04
0.96
30.45
1.52
-0.05
-10.29
1.6
-7.83
-0.46
-1.21
-0.38
-0.5

> <PUBCHEM_SHAPE_SELFOVERLAP>
1101.322

> <PUBCHEM_SHAPE_VOLUME>
274.9

> <PUBCHEM_COORDINATE_TYPE>
2
5
10

$$$$

