9448
  -OEChem-06261203423D

 32 33  0     0  0  0  0  0  0999 V2000
    3.1799    2.1302   -0.1811 F   0  0  0  0  0  0  0  0  0  0  0  0
    4.5321   -0.2721    0.2035 N   0  0  0  0  0  0  0  0  0  0  0  0
   -1.0078   -0.1426   -0.5956 N   0  0  0  0  0  0  0  0  0  0  0  0
   -1.5975   -0.0404    0.5059 N   0  0  0  0  0  0  0  0  0  0  0  0
    3.1365   -0.2375    0.0021 C   0  0  0  0  0  0  0  0  0  0  0  0
    2.4871    0.9825   -0.1875 C   0  0  0  0  0  0  0  0  0  0  0  0
    2.4056   -1.4255   -0.0074 C   0  0  0  0  0  0  0  0  0  0  0  0
    0.3829   -0.1740   -0.3949 C   0  0  0  0  0  0  0  0  0  0  0  0
    1.1067    1.0142   -0.3865 C   0  0  0  0  0  0  0  0  0  0  0  0
    1.0254   -1.3937   -0.2063 C   0  0  0  0  0  0  0  0  0  0  0  0
    5.3075   -1.4179   -0.2281 C   0  0  0  0  0  0  0  0  0  0  0  0
    5.2106    0.8437    0.8322 C   0  0  0  0  0  0  0  0  0  0  0  0
   -2.9812   -0.0088    0.3066 C   0  0  0  0  0  0  0  0  0  0  0  0
   -3.7116   -1.1973    0.2973 C   0  0  0  0  0  0  0  0  0  0  0  0
   -3.6312    1.2107    0.1167 C   0  0  0  0  0  0  0  0  0  0  0  0
   -5.0917   -1.1663    0.0978 C   0  0  0  0  0  0  0  0  0  0  0  0
   -5.0115    1.2416   -0.0826 C   0  0  0  0  0  0  0  0  0  0  0  0
   -5.7417    0.0531   -0.0921 C   0  0  0  0  0  0  0  0  0  0  0  0
    2.8780   -2.3910    0.1490 H   0  0  0  0  0  0  0  0  0  0  0  0
    0.6091    1.9688   -0.5342 H   0  0  0  0  0  0  0  0  0  0  0  0
    0.4629   -2.3236   -0.2104 H   0  0  0  0  0  0  0  0  0  0  0  0
    5.2165   -2.2410    0.4885 H   0  0  0  0  0  0  0  0  0  0  0  0
    6.3714   -1.1670   -0.3067 H   0  0  0  0  0  0  0  0  0  0  0  0
    4.9919   -1.7663   -1.2181 H   0  0  0  0  0  0  0  0  0  0  0  0
    6.1565    0.5186    1.2808 H   0  0  0  0  0  0  0  0  0  0  0  0
    4.6182    1.2782    1.6453 H   0  0  0  0  0  0  0  0  0  0  0  0
    5.4511    1.6187    0.0972 H   0  0  0  0  0  0  0  0  0  0  0  0
   -3.2143   -2.1525    0.4450 H   0  0  0  0  0  0  0  0  0  0  0  0
   -3.0711    2.1422    0.1230 H   0  0  0  0  0  0  0  0  0  0  0  0
   -5.6604   -2.0916    0.0905 H   0  0  0  0  0  0  0  0  0  0  0  0
   -5.5177    2.1911   -0.2304 H   0  0  0  0  0  0  0  0  0  0  0  0
   -6.8163    0.0773   -0.2474 H   0  0  0  0  0  0  0  0  0  0  0  0
  1  6  1  0  0  0  0
  2  5  1  0  0  0  0
  2 11  1  0  0  0  0
  2 12  1  0  0  0  0
  3  4  2  0  0  0  0
  3  8  1  0  0  0  0
  4 13  1  0  0  0  0
  5  6  2  0  0  0  0
  5  7  1  0  0  0  0
  6  9  1  0  0  0  0
  7 10  2  0  0  0  0
  7 19  1  0  0  0  0
  8  9  2  0  0  0  0
  8 10  1  0  0  0  0
  9 20  1  0  0  0  0
 10 21  1  0  0  0  0
 11 22  1  0  0  0  0
 11 23  1  0  0  0  0
 11 24  1  0  0  0  0
 12 25  1  0  0  0  0
 12 26  1  0  0  0  0
 12 27  1  0  0  0  0
 13 14  2  0  0  0  0
 13 15  1  0  0  0  0
 14 16  1  0  0  0  0
 14 28  1  0  0  0  0
 15 17  2  0  0  0  0
 15 29  1  0  0  0  0
 16 18  2  0  0  0  0
 16 30  1  0  0  0  0
 17 18  1  0  0  0  0
 17 31  1  0  0  0  0
 18 32  1  0  0  0  0
M  END
> <PUBCHEM_COMPOUND_CID>
9448

> <PUBCHEM_CONFORMER_RMSD>
0.6

> <PUBCHEM_CONFORMER_DIVERSEORDER>
1
5
2
6
3
4

> <PUBCHEM_MMFF94_PARTIAL_CHARGES>
26
1 -0.19
10 -0.15
11 0.37
12 0.37
13 0.18
14 -0.15
15 -0.15
16 -0.15
17 -0.15
18 -0.15
19 0.15
2 -0.84
20 0.15
21 0.15
28 0.15
29 0.15
3 -0.18
30 0.15
31 0.15
32 0.15
4 -0.18
5 0.1
6 0.19
7 -0.15
8 0.18
9 -0.15

> <PUBCHEM_EFFECTIVE_ROTOR_COUNT>
3

> <PUBCHEM_PHARMACOPHORE_FEATURES>
3
1 2 cation
6 13 14 15 16 17 18 rings
6 5 6 7 8 9 10 rings

> <PUBCHEM_HEAVY_ATOM_COUNT>
18

> <PUBCHEM_ATOM_DEF_STEREO_COUNT>
0

> <PUBCHEM_ATOM_UDEF_STEREO_COUNT>
0

> <PUBCHEM_BOND_DEF_STEREO_COUNT>
0

> <PUBCHEM_BOND_UDEF_STEREO_COUNT>
0

> <PUBCHEM_ISOTOPIC_ATOM_COUNT>
0

> <PUBCHEM_COMPONENT_COUNT>
1

> <PUBCHEM_CACTVS_TAUTO_COUNT>
1

> <PUBCHEM_CONFORMER_ID>
000024E800000001

> <PUBCHEM_MMFF94_ENERGY>
62.7421

> <PUBCHEM_FEATURE_SELFOVERLAP>
15.223

> <PUBCHEM_SHAPE_FINGERPRINT>
10366900 7 17275101743062674712
10937287 8 16836543689289455708
12107183 9 17690562309354864537
12236239 1 17894633660187306255
12507557 5 18335138683251804705
128620 24 16515400777031815441
13167823 11 18411139117402290279
13533116 47 16732979869151920934
13675066 3 18259706687980369410
14251764 18 18343588426264279610
14341114 176 18410288120734027347
15196674 1 18411417293606571869
15788980 27 18333731312552188887
17834072 33 18409729543247243431
17844677 252 18334850645116588201
19489759 90 18342740728305356377
200 152 18259987076499191771
20645477 70 18335699485341906358
21267235 1 18411409618689969935
21682296 61 17824532192104677878
21709351 56 18412831282823982221
23402539 116 18413112762433230933
23559900 14 18411705353095273105
26918003 58 18341894082740066803
300161 21 18341337768674608939
3421961 26 18192995039884368766
351380 180 18412826880419290777
3545911 37 18411980286947275661
4073 2 17988917838678300139
42 15 18343017796302736413
4214541 1 18412261761918847997
42788 4 18408604772827180691
4463277 17 18413386545287051244
465052 167 18341891909618938350
5104073 3 18411978044747618153
542803 24 16988559113143901791
7495541 125 17095809806639172963
77779 3 18411416211649132295
9709674 26 18411409618943632263
9971528 1 17775002362499959724
9999458 23 18060419093376708542

> <PUBCHEM_SHAPE_MULTIPOLES>
348.21
13.84
1.63
0.71
4.12
0.15
-0.03
-0.18
-1.3
-0.61
0.04
-0.16
0.03
0.35

> <PUBCHEM_SHAPE_SELFOVERLAP>
743.367

> <PUBCHEM_SHAPE_VOLUME>
195.5

> <PUBCHEM_COORDINATE_TYPE>
2
5
10

$$$$

