4322
  -OEChem-06261200023D

 62 65  0     1  0  0  0  0  0999 V2000
   -3.0096   -3.2130   -0.2799 F   0  0  0  0  0  0  0  0  0  0  0  0
   -4.1606    1.3740    0.2178 F   0  0  0  0  0  0  0  0  0  0  0  0
   -0.4236   -2.4585   -0.8188 O   0  0  0  0  0  0  0  0  0  0  0  0
   -1.5567    2.0267   -0.3298 O   0  0  0  0  0  0  0  0  0  0  0  0
   -7.1557    1.3748    1.3561 O   0  0  0  0  0  0  0  0  0  0  0  0
   -0.7054    2.4255   -2.9549 O   0  0  0  0  0  0  0  0  0  0  0  0
   -5.5569    0.1703    2.4320 O   0  0  0  0  0  0  0  0  0  0  0  0
    5.2095   -1.9128    0.9063 N   0  0  0  0  0  0  0  0  0  0  0  0
    3.7369   -0.4094    1.7767 N   0  0  0  0  0  0  0  0  0  0  0  0
   -4.9699   -1.2985    0.2591 N   0  0  3  0  0  0  0  0  0  0  0  0
   -0.9943   -0.2106   -0.5733 N   0  0  0  0  0  0  0  0  0  0  0  0
    4.3443    2.9580    1.0055 N   0  0  0  0  0  0  0  0  0  0  0  0
    2.5988    2.5032    2.4912 N   0  0  0  0  0  0  0  0  0  0  0  0
    5.9476   -1.4013    2.0338 C   0  0  0  0  0  0  0  0  0  0  0  0
    4.0101   -1.2490    0.8035 C   0  0  0  0  0  0  0  0  0  0  0  0
    4.8995   -0.5083    2.7024 C   0  0  0  0  0  0  0  0  0  0  0  0
    3.0461   -1.4196   -0.3011 C   0  0  0  0  0  0  0  0  0  0  0  0
    5.7785   -2.9300    0.0602 C   0  0  0  0  0  0  0  0  0  0  0  0
    1.7512   -1.8643   -0.0345 C   0  0  0  0  0  0  0  0  0  0  0  0
    3.4301   -1.1358   -1.6116 C   0  0  0  0  0  0  0  0  0  0  0  0
    0.8402   -2.0247   -1.0786 C   0  0  0  0  0  0  0  0  0  0  0  0
   -3.6371   -0.9338   -0.0202 C   0  0  0  0  0  0  0  0  0  0  0  0
    2.5192   -1.2963   -2.6557 C   0  0  0  0  0  0  0  0  0  0  0  0
    1.2242   -1.7407   -2.3890 C   0  0  0  0  0  0  0  0  0  0  0  0
   -1.3900   -1.5031   -0.5527 C   0  0  0  0  0  0  0  0  0  0  0  0
   -2.6860   -1.9132   -0.2842 C   0  0  0  0  0  0  0  0  0  0  0  0
   -3.2683    0.4068   -0.0324 C   0  0  0  0  0  0  0  0  0  0  0  0
   -6.0402   -0.3300    0.1243 C   0  0  0  0  0  0  0  0  0  0  0  0
   -1.9461    0.7130   -0.3118 C   0  0  0  0  0  0  0  0  0  0  0  0
   -5.2867   -2.6432    0.6985 C   0  0  0  0  0  0  0  0  0  0  0  0
   -0.2315    2.2917   -0.6121 C   0  0  0  0  0  0  0  0  0  0  0  0
   -6.2090    0.4051    1.4230 C   0  0  0  0  0  0  0  0  0  0  0  0
    0.6919    2.3595    0.4312 C   0  0  0  0  0  0  0  0  0  0  0  0
    0.1871    2.4895   -1.9279 C   0  0  0  0  0  0  0  0  0  0  0  0
    2.0338    2.6251    0.1586 C   0  0  0  0  0  0  0  0  0  0  0  0
    1.5290    2.7551   -2.2003 C   0  0  0  0  0  0  0  0  0  0  0  0
    2.4524    2.8229   -1.1572 C   0  0  0  0  0  0  0  0  0  0  0  0
    2.9970    2.6951    1.2460 C   0  0  0  0  0  0  0  0  0  0  0  0
    6.2865   -2.1933    2.7089 H   0  0  0  0  0  0  0  0  0  0  0  0
    6.8106   -0.8149    1.7015 H   0  0  0  0  0  0  0  0  0  0  0  0
    5.3035    0.4883    2.9068 H   0  0  0  0  0  0  0  0  0  0  0  0
    4.5636   -0.9421    3.6506 H   0  0  0  0  0  0  0  0  0  0  0  0
    6.2363   -2.4764   -0.8240 H   0  0  0  0  0  0  0  0  0  0  0  0
    6.5505   -3.4991    0.5887 H   0  0  0  0  0  0  0  0  0  0  0  0
    5.0121   -3.6395   -0.2672 H   0  0  0  0  0  0  0  0  0  0  0  0
    1.4473   -2.0900    0.9850 H   0  0  0  0  0  0  0  0  0  0  0  0
    4.4334   -0.7812   -1.8327 H   0  0  0  0  0  0  0  0  0  0  0  0
    2.8173   -1.0724   -3.6758 H   0  0  0  0  0  0  0  0  0  0  0  0
    0.5198   -1.8629   -3.2074 H   0  0  0  0  0  0  0  0  0  0  0  0
   -5.8875    0.3605   -0.7119 H   0  0  0  0  0  0  0  0  0  0  0  0
   -6.9844   -0.8510   -0.0778 H   0  0  0  0  0  0  0  0  0  0  0  0
   -6.2876   -2.6824    1.1446 H   0  0  0  0  0  0  0  0  0  0  0  0
   -4.5966   -2.9926    1.4746 H   0  0  0  0  0  0  0  0  0  0  0  0
   -5.2921   -3.3421   -0.1445 H   0  0  0  0  0  0  0  0  0  0  0  0
    0.3398    2.2017    1.4476 H   0  0  0  0  0  0  0  0  0  0  0  0
    1.8682    2.9096   -3.2212 H   0  0  0  0  0  0  0  0  0  0  0  0
    3.4826    3.0303   -1.4246 H   0  0  0  0  0  0  0  0  0  0  0  0
   -7.2511    1.8523    2.2077 H   0  0  0  0  0  0  0  0  0  0  0  0
   -0.2366    2.5838   -3.7922 H   0  0  0  0  0  0  0  0  0  0  0  0
    5.0019    2.9985    1.7774 H   0  0  0  0  0  0  0  0  0  0  0  0
    4.7337    3.1130    0.0841 H   0  0  0  0  0  0  0  0  0  0  0  0
    3.4150    2.5890    3.1070 H   0  0  0  0  0  0  0  0  0  0  0  0
  1 26  1  0  0  0  0
  2 27  1  0  0  0  0
  3 21  1  0  0  0  0
  3 25  1  0  0  0  0
  4 29  1  0  0  0  0
  4 31  1  0  0  0  0
  5 32  1  0  0  0  0
  5 58  1  0  0  0  0
  6 34  1  0  0  0  0
  6 59  1  0  0  0  0
  7 32  2  0  0  0  0
  8 14  1  0  0  0  0
  8 15  1  0  0  0  0
  8 18  1  0  0  0  0
  9 15  2  0  0  0  0
  9 16  1  0  0  0  0
 10 22  1  0  0  0  0
 10 28  1  0  0  0  0
 10 30  1  0  0  0  0
 11 25  2  0  0  0  0
 11 29  1  0  0  0  0
 12 38  1  0  0  0  0
 12 60  1  0  0  0  0
 12 61  1  0  0  0  0
 13 38  2  0  0  0  0
 13 62  1  0  0  0  0
 14 16  1  0  0  0  0
 14 39  1  0  0  0  0
 14 40  1  0  0  0  0
 15 17  1  0  0  0  0
 16 41  1  0  0  0  0
 16 42  1  0  0  0  0
 17 19  2  0  0  0  0
 17 20  1  0  0  0  0
 18 43  1  0  0  0  0
 18 44  1  0  0  0  0
 18 45  1  0  0  0  0
 19 21  1  0  0  0  0
 19 46  1  0  0  0  0
 20 23  2  0  0  0  0
 20 47  1  0  0  0  0
 21 24  2  0  0  0  0
 22 26  2  0  0  0  0
 22 27  1  0  0  0  0
 23 24  1  0  0  0  0
 23 48  1  0  0  0  0
 24 49  1  0  0  0  0
 25 26  1  0  0  0  0
 27 29  2  0  0  0  0
 28 32  1  0  0  0  0
 28 50  1  0  0  0  0
 28 51  1  0  0  0  0
 30 52  1  0  0  0  0
 30 53  1  0  0  0  0
 30 54  1  0  0  0  0
 31 33  1  0  0  0  0
 31 34  2  0  0  0  0
 33 35  2  0  0  0  0
 33 55  1  0  0  0  0
 34 36  1  0  0  0  0
 35 37  1  0  0  0  0
 35 38  1  0  0  0  0
 36 37  2  0  0  0  0
 36 56  1  0  0  0  0
 37 57  1  0  0  0  0
M  END
> <PUBCHEM_COMPOUND_CID>
4322

> <PUBCHEM_CONFORMER_RMSD>
1

> <PUBCHEM_CONFORMER_DIVERSEORDER>
1
117
317
178
106
328
316
282
65
259
101
280
160
294
271
153
203
353
270
257
276
292
230
326
303
204
17
227
229
211
121
216
291
298
126
129
234
254
275
127
235
335
205
260
145
237
334
46
196
198
23
151
344
336
322
245
180
130
89
143
185
210
309
252
240
220
348
100
349
318
325
212
242
338
312
174
288
183
226
182
133
175
343
305
154
278
163
184
140
47
75
173
281
314
267
293
324
16
333
157
238
132
300
221
150
134
244
224
162
261
71
102
345
231
352
273
156
223
194
169
320
87
332
105
327
247
141
49
6
109
269
2
354
265
98
253
103
159
94
296
56
116
96
149
290
78
85
329
122
197
302
239
146
356
45
232
331
148
323
34
308
119
274
319
161
24
97
236
120
20
301
289
60
128
213
63
299
250
110
123
351
136
21
341
72
201
125
225
206
93
283
170
107
195
3
217
64
215
315
295
52
66
112
304
171
177
83
277
142
111
264
167
330
207
310
61
44
358
70
321
306
218
37
114
104
209
263
55
82
48
248
19
158
14
200
311
228
246
346
26
286
84
340
77
73
181
59
74
219
144
337
251
147
38
28
284
62
347
124
108
357
76
80
69
342
179
214
256
187
189
131
255
40
193
32
36
176
27
287
307
192
190
90
13
30
95
135
118
272
9
11
279
91
186
79
67
54
249
43
81
208
113
285
155
12
233
350
152
51
42
138
188
18
172
25
268
41
241
202
35
33
262
339
297
243
139
199
50
164
355
5
31
166
39
10
88
86
68
266
115
7
313
58
191
53
165
15
57
222
137
29
4
258
22
8
92
168
99

> <PUBCHEM_MMFF94_PARTIAL_CHARGES>
50
1 -0.19
10 -0.84
11 -0.62
12 -0.85
13 -0.85
14 0.37
15 0.41
16 0.25
17 0.09
18 0.37
19 -0.15
2 -0.19
20 -0.15
21 0.08
22 0.1
23 -0.15
24 -0.15
25 0.39
26 0.19
27 0.19
28 0.43
29 0.39
3 -0.17
30 0.37
31 0.08
32 0.66
33 -0.15
34 0.08
35 0.09
36 -0.15
37 -0.15
38 0.41
4 -0.17
46 0.15
47 0.15
48 0.15
49 0.15
5 -0.65
55 0.15
56 0.15
57 0.15
58 0.5
59 0.45
6 -0.53
60 0.4
61 0.4
62 0.4
7 -0.57
8 -0.79
9 -0.7

> <PUBCHEM_EFFECTIVE_ROTOR_COUNT>
9.6

> <PUBCHEM_PHARMACOPHORE_FEATURES>
14
1 10 cation
1 12 donor
1 13 donor
1 4 acceptor
1 5 acceptor
1 6 donor
1 7 acceptor
3 12 13 38 cation
3 5 7 32 anion
3 8 9 15 cation
5 8 9 14 15 16 rings
6 11 22 25 26 27 29 rings
6 17 19 20 21 23 24 rings
6 31 33 34 35 36 37 rings

> <PUBCHEM_HEAVY_ATOM_COUNT>
38

> <PUBCHEM_ATOM_DEF_STEREO_COUNT>
0

> <PUBCHEM_ATOM_UDEF_STEREO_COUNT>
0

> <PUBCHEM_BOND_DEF_STEREO_COUNT>
0

> <PUBCHEM_BOND_UDEF_STEREO_COUNT>
0

> <PUBCHEM_ISOTOPIC_ATOM_COUNT>
0

> <PUBCHEM_COMPONENT_COUNT>
1

> <PUBCHEM_CACTVS_TAUTO_COUNT>
5

> <PUBCHEM_CONFORMER_ID>
000010E200000001

> <PUBCHEM_MMFF94_ENERGY>
140.8851

> <PUBCHEM_FEATURE_SELFOVERLAP>
71.141

> <PUBCHEM_SHAPE_FINGERPRINT>
10190108 129 18202010894146389072
10290309 65 18122359118955664894
11421498 54 17274266187651582962
11963148 33 17477760187891304395
12156800 1 15695787486448196628
12166972 35 17060331955150788950
12422481 6 18409175393692452169
12608794 3 18262255364286587039
12633257 1 18335427863151729466
131258 38 17988933245380586234
13140716 1 18408885105548533415
15064986 96 17749384841775353462
15324884 4 17758153593394685176
15420108 30 17824834334658572046
15840311 113 16734378504029734539
17980427 23 17968109606850258167
1813 80 17489317347203170221
1979834 28 17749385983746024278
20691752 17 17774724139055883743
21033648 29 17822005428310706815
21421861 104 18271518719522258780
22223350 30 17416671471779728491
23559900 14 18263341647757547453
24771293 8 18113621213991361001
3411729 13 18264201422716600548
35225 105 16695596576849581948
3680242 22 18341886398674568819
392239 28 18341903986560612051
4112364 45 17022905593100892233
4144715 1 18339918199973662939
460360 51 18197481949574256059
469060 322 18057879350228343368
5104073 3 18337658721417166427
513532 50 16226036791280352172

> <PUBCHEM_SHAPE_MULTIPOLES>
708.24
13.68
4.24
2.47
13.99
1.67
0.19
-6.18
-10.7
-2.92
0.85
-2.29
0.72
-0.04

> <PUBCHEM_SHAPE_SELFOVERLAP>
1550.489

> <PUBCHEM_SHAPE_VOLUME>
384.7

> <PUBCHEM_COORDINATE_TYPE>
2
5
10

$$$$

