4395
  -OEChem-06261200052D

 27 26  0     1  0  0  0  0  0999 V2000
    6.8671    1.8100    0.0000 O   0  0  0  0  0  0  0  0  0  0  0  0
    6.0010    3.3100    0.0000 O   0  0  0  0  0  0  0  0  0  0  0  0
    4.2690    2.3100    0.0000 N   0  0  0  0  0  0  0  0  0  0  0  0
    3.4030   -1.1900    0.0000 N   0  0  0  0  0  0  0  0  0  0  0  0
    2.5369   -2.6900    0.0000 N   0  0  0  0  0  0  0  0  0  0  0  0
    5.1350    0.8100    0.0000 C   0  0  0  0  0  0  0  0  0  0  0  0
    4.2690    0.3100    0.0000 C   0  0  0  0  0  0  0  0  0  0  0  0
    5.1350    1.8100    0.0000 C   0  0  3  0  0  0  0  0  0  0  0  0
    4.2690   -0.6900    0.0000 C   0  0  0  0  0  0  0  0  0  0  0  0
    6.0010    2.3100    0.0000 C   0  0  0  0  0  0  0  0  0  0  0  0
    3.4030   -2.1900    0.0000 C   0  0  0  0  0  0  0  0  0  0  0  0
    4.2690   -2.6900    0.0000 C   0  0  0  0  0  0  0  0  0  0  0  0
    5.3471    0.2274    0.0000 H   0  0  0  0  0  0  0  0  0  0  0  0
    5.7456    0.9177    0.0000 H   0  0  0  0  0  0  0  0  0  0  0  0
    4.0569    0.8926    0.0000 H   0  0  0  0  0  0  0  0  0  0  0  0
    3.6584    0.2023    0.0000 H   0  0  0  0  0  0  0  0  0  0  0  0
    5.1350    2.4300    0.0000 H   0  0  0  0  0  0  0  0  0  0  0  0
    4.4810   -1.2726    0.0000 H   0  0  0  0  0  0  0  0  0  0  0  0
    4.8796   -0.5823    0.0000 H   0  0  0  0  0  0  0  0  0  0  0  0
    3.7320    2.0000    0.0000 H   0  0  0  0  0  0  0  0  0  0  0  0
    4.2690    2.9300    0.0000 H   0  0  0  0  0  0  0  0  0  0  0  0
    3.9590   -3.2269    0.0000 H   0  0  0  0  0  0  0  0  0  0  0  0
    4.8059   -3.0000    0.0000 H   0  0  0  0  0  0  0  0  0  0  0  0
    4.5790   -2.1531    0.0000 H   0  0  0  0  0  0  0  0  0  0  0  0
    7.4040    2.1200    0.0000 H   0  0  0  0  0  0  0  0  0  0  0  0
    2.5369   -3.3100    0.0000 H   0  0  0  0  0  0  0  0  0  0  0  0
    2.0000   -2.3800    0.0000 H   0  0  0  0  0  0  0  0  0  0  0  0
  1 10  1  0  0  0  0
  1 25  1  0  0  0  0
  2 10  2  0  0  0  0
  3  8  1  0  0  0  0
  3 20  1  0  0  0  0
  3 21  1  0  0  0  0
  4  9  1  0  0  0  0
  4 11  2  0  0  0  0
  5 11  1  0  0  0  0
  5 26  1  0  0  0  0
  5 27  1  0  0  0  0
  6  7  1  0  0  0  0
  6  8  1  0  0  0  0
  6 13  1  0  0  0  0
  6 14  1  0  0  0  0
  7  9  1  0  0  0  0
  7 15  1  0  0  0  0
  7 16  1  0  0  0  0
  8 10  1  0  0  0  0
  8 17  1  0  0  0  0
  9 18  1  0  0  0  0
  9 19  1  0  0  0  0
 11 12  1  0  0  0  0
 12 22  1  0  0  0  0
 12 23  1  0  0  0  0
 12 24  1  0  0  0  0
M  END
> <PUBCHEM_COMPOUND_CID>
4395

> <PUBCHEM_COMPOUND_CANONICALIZED>
1

> <PUBCHEM_CACTVS_COMPLEXITY>
180

> <PUBCHEM_CACTVS_HBOND_ACCEPTOR>
4

> <PUBCHEM_CACTVS_HBOND_DONOR>
3

> <PUBCHEM_CACTVS_ROTATABLE_BOND>
5

> <PUBCHEM_CACTVS_SUBSKEYS>
AAADccBjMAAAAAAAAAAAAAAAAAAAAAAAAAAAAAAAAAAAAAAAAAAAHgAQCAAACCjBgAQDCAJAAgAoAAKwLAAAAAEAAAAAAIGQAAACABIAgAAAQAAEEAAAAACYEQAAAAAAAAAAAAAAAAAAAAAAAAAAAAAAAA==

> <PUBCHEM_IUPAC_OPENEYE_NAME>
2-amino-5-(1-aminoethylideneamino)pentanoic acid

> <PUBCHEM_IUPAC_CAS_NAME>
2-amino-5-(1-aminoethylideneamino)pentanoic acid

> <PUBCHEM_IUPAC_NAME>
2-amino-5-(1-aminoethylideneamino)pentanoic acid

> <PUBCHEM_IUPAC_SYSTEMATIC_NAME>
2-azanyl-5-(1-azanylethylideneamino)pentanoic acid

> <PUBCHEM_IUPAC_TRADITIONAL_NAME>
2-amino-5-(1-aminoethylideneamino)valeric acid

> <PUBCHEM_IUPAC_INCHI>
InChI=1S/C7H15N3O2/c1-5(8)10-4-2-3-6(9)7(11)12/h6H,2-4,9H2,1H3,(H2,8,10)(H,11,12)

> <PUBCHEM_IUPAC_INCHIKEY>
UYZFAUAYFLEHRC-UHFFFAOYSA-N

> <PUBCHEM_XLOGP3>
-3.6

> <PUBCHEM_EXACT_MASS>
173.116427

> <PUBCHEM_MOLECULAR_FORMULA>
C7H15N3O2

> <PUBCHEM_MOLECULAR_WEIGHT>
173.2129

> <PUBCHEM_OPENEYE_CAN_SMILES>
CC(=NCCCC(C(=O)O)N)N

> <PUBCHEM_OPENEYE_ISO_SMILES>
CC(=NCCCC(C(=O)O)N)N

> <PUBCHEM_CACTVS_TPSA>
102

> <PUBCHEM_MONOISOTOPIC_WEIGHT>
173.116427

> <PUBCHEM_TOTAL_CHARGE>
0

> <PUBCHEM_HEAVY_ATOM_COUNT>
12

> <PUBCHEM_ATOM_DEF_STEREO_COUNT>
0

> <PUBCHEM_ATOM_UDEF_STEREO_COUNT>
1

> <PUBCHEM_BOND_DEF_STEREO_COUNT>
0

> <PUBCHEM_BOND_UDEF_STEREO_COUNT>
0

> <PUBCHEM_ISOTOPIC_ATOM_COUNT>
0

> <PUBCHEM_COMPONENT_COUNT>
1

> <PUBCHEM_CACTVS_TAUTO_COUNT>
3

> <PUBCHEM_COORDINATE_TYPE>
1
5
255

> <PUBCHEM_BONDANNOTATIONS>
8  3  3

$$$$

