4682
  -OEChem-06261200172D

202204  0     1  0  0  0  0  0999 V2000
   14.1244   -5.1900    0.0000 O   0  0  0  0  0  0  0  0  0  0  0  0
   16.7224   -5.6900    0.0000 O   0  0  0  0  0  0  0  0  0  0  0  0
   15.8564   -5.1900    0.0000 O   0  0  0  0  0  0  0  0  0  0  0  0
   16.7224   -8.6900    0.0000 O   0  0  0  0  0  0  0  0  0  0  0  0
   11.5263   -2.6900    0.0000 O   0  0  0  0  0  0  0  0  0  0  0  0
   12.3923   -2.1900    0.0000 O   0  0  0  0  0  0  0  0  0  0  0  0
   17.5885   -5.1900    0.0000 O   0  0  0  0  0  0  0  0  0  0  0  0
   10.6603   -7.1900    0.0000 O   0  0  0  0  0  0  0  0  0  0  0  0
   10.6603   -2.1900    0.0000 O   0  0  0  0  0  0  0  0  0  0  0  0
   21.0526   -5.1900    0.0000 O   0  0  0  0  0  0  0  0  0  0  0  0
   13.2583    0.3100    0.0000 O   0  0  0  0  0  0  0  0  0  0  0  0
   14.9904    0.3100    0.0000 O   0  0  0  0  0  0  0  0  0  0  0  0
   21.0526  -10.1900    0.0000 O   0  0  0  0  0  0  0  0  0  0  0  0
   17.5885   -4.1900    0.0000 O   0  0  0  0  0  0  0  0  0  0  0  0
    7.1962   -1.1900    0.0000 O   0  0  0  0  0  0  0  0  0  0  0  0
    8.9282    1.8100    0.0000 O   0  0  0  0  0  0  0  0  0  0  0  0
   16.7224   -3.6900    0.0000 O   0  0  0  0  0  0  0  0  0  0  0  0
    8.0622    2.3100    0.0000 O   0  0  0  0  0  0  0  0  0  0  0  0
    4.4641    4.8100    0.0000 O   0  0  0  0  0  0  0  0  0  0  0  0
    4.5981    3.3100    0.0000 O   0  0  0  0  0  0  0  0  0  0  0  0
    6.3301    6.3100    0.0000 O   0  0  0  0  0  0  0  0  0  0  0  0
   15.8564   -7.1900    0.0000 N   0  0  0  0  0  0  0  0  0  0  0  0
   12.3923   -4.1900    0.0000 N   0  0  0  0  0  0  0  0  0  0  0  0
   18.4545   -6.6900    0.0000 N   0  0  0  0  0  0  0  0  0  0  0  0
    9.7942   -3.6900    0.0000 N   0  0  0  0  0  0  0  0  0  0  0  0
   14.1244   -2.1900    0.0000 N   0  0  0  0  0  0  0  0  0  0  0  0
   19.3205   -4.1900    0.0000 N   0  0  0  0  0  0  0  0  0  0  0  0
    8.9282   -1.1900    0.0000 N   0  0  0  0  0  0  0  0  0  0  0  0
    8.9282   -7.1900    0.0000 N   0  0  0  0  0  0  0  0  0  0  0  0
    8.0622   -3.6900    0.0000 N   0  0  0  0  0  0  0  0  0  0  0  0
   15.8564   -1.1900    0.0000 N   0  0  0  0  0  0  0  0  0  0  0  0
   17.5885   -2.1900    0.0000 N   0  0  0  0  0  0  0  0  0  0  0  0
    7.1962    0.8100    0.0000 N   0  0  0  0  0  0  0  0  0  0  0  0
    6.3301    3.3100    0.0000 N   0  0  0  0  0  0  0  0  0  0  0  0
   14.9904   -6.6900    0.0000 C   0  0  3  0  0  0  0  0  0  0  0  0
   14.0804   -7.1968    0.0000 C   0  0  0  0  0  0  0  0  0  0  0  0
   14.0723   -8.2384    0.0000 C   0  0  0  0  0  0  0  0  0  0  0  0
   15.8725   -8.2315    0.0000 C   0  0  0  0  0  0  0  0  0  0  0  0
   14.9744   -8.7593    0.0000 C   0  0  0  0  0  0  0  0  0  0  0  0
   14.1244   -4.1900    0.0000 C   0  0  3  0  0  0  0  0  0  0  0  0
   16.7224   -6.6900    0.0000 C   0  0  0  0  0  0  0  0  0  0  0  0
   14.9904   -5.6900    0.0000 C   0  0  0  0  0  0  0  0  0  0  0  0
   17.5885   -7.1900    0.0000 C   0  0  3  0  0  0  0  0  0  0  0  0
   13.2583   -3.6900    0.0000 C   0  0  3  0  0  0  0  0  0  0  0  0
   14.9904   -3.6900    0.0000 C   0  0  0  0  0  0  0  0  0  0  0  0
   17.5885   -8.1900    0.0000 C   0  0  3  0  0  0  0  0  0  0  0  0
   10.6603   -5.1900    0.0000 C   0  0  3  0  0  0  0  0  0  0  0  0
   10.6603   -4.1900    0.0000 C   0  0  3  0  0  0  0  0  0  0  0  0
    9.7942   -5.6900    0.0000 C   0  0  3  0  0  0  0  0  0  0  0  0
   11.5263   -3.6900    0.0000 C   0  0  0  0  0  0  0  0  0  0  0  0
   15.8564   -4.1900    0.0000 C   0  0  0  0  0  0  0  0  0  0  0  0
   15.4904   -2.8240    0.0000 C   0  0  0  0  0  0  0  0  0  0  0  0
   13.2583   -2.6900    0.0000 C   0  0  0  0  0  0  0  0  0  0  0  0
   18.4545   -8.6900    0.0000 C   0  0  0  0  0  0  0  0  0  0  0  0
   11.5263   -5.6900    0.0000 C   0  0  0  0  0  0  0  0  0  0  0  0
   18.4545   -5.6900    0.0000 C   0  0  0  0  0  0  0  0  0  0  0  0
   19.3205   -5.1900    0.0000 C   0  0  3  0  0  0  0  0  0  0  0  0
    8.9282   -5.1900    0.0000 C   0  0  0  0  0  0  0  0  0  0  0  0
    9.7942   -6.6900    0.0000 C   0  0  0  0  0  0  0  0  0  0  0  0
    9.7942   -2.6900    0.0000 C   0  0  0  0  0  0  0  0  0  0  0  0
   14.1244   -1.1900    0.0000 C   0  0  3  0  0  0  0  0  0  0  0  0
    8.9282   -2.1900    0.0000 C   0  0  3  0  0  0  0  0  0  0  0  0
   18.4545   -9.6900    0.0000 C   0  0  0  0  0  0  0  0  0  0  0  0
   19.3205   -8.1900    0.0000 C   0  0  0  0  0  0  0  0  0  0  0  0
   20.1865   -5.6900    0.0000 C   0  0  3  0  0  0  0  0  0  0  0  0
    8.0622   -2.6900    0.0000 C   0  0  3  0  0  0  0  0  0  0  0  0
   16.7224   -9.6900    0.0000 C   0  0  0  0  0  0  0  0  0  0  0  0
   13.2583   -0.6900    0.0000 C   0  0  0  0  0  0  0  0  0  0  0  0
   19.3205  -10.1900    0.0000 C   0  0  0  0  0  0  0  0  0  0  0  0
   20.1865   -8.6900    0.0000 C   0  0  0  0  0  0  0  0  0  0  0  0
   14.9904   -0.6900    0.0000 C   0  0  0  0  0  0  0  0  0  0  0  0
   20.1865   -6.6900    0.0000 C   0  0  0  0  0  0  0  0  0  0  0  0
   20.1865   -9.6900    0.0000 C   0  0  0  0  0  0  0  0  0  0  0  0
    7.1962   -2.1900    0.0000 C   0  0  0  0  0  0  0  0  0  0  0  0
   18.4545   -3.6900    0.0000 C   0  0  0  0  0  0  0  0  0  0  0  0
    8.0622   -0.6900    0.0000 C   0  0  0  0  0  0  0  0  0  0  0  0
   18.4545   -2.6900    0.0000 C   0  0  3  0  0  0  0  0  0  0  0  0
    8.0622    0.3100    0.0000 C   0  0  3  0  0  0  0  0  0  0  0  0
   15.8564   -2.1900    0.0000 C   0  0  0  0  0  0  0  0  0  0  0  0
    8.9282    0.8100    0.0000 C   0  0  3  0  0  0  0  0  0  0  0  0
   19.3205   -2.1900    0.0000 C   0  0  0  0  0  0  0  0  0  0  0  0
   16.7224   -2.6900    0.0000 C   0  0  0  0  0  0  0  0  0  0  0  0
   12.3923    0.8100    0.0000 C   0  0  0  0  0  0  0  0  0  0  0  0
    9.7942    0.3100    0.0000 C   0  0  0  0  0  0  0  0  0  0  0  0
    7.1962    1.8100    0.0000 C   0  0  0  0  0  0  0  0  0  0  0  0
    6.3301    2.3100    0.0000 C   0  0  0  0  0  0  0  0  0  0  0  0
    5.4641    4.8100    0.0000 C   0  0  3  0  0  0  0  0  0  0  0  0
    5.4641    3.8100    0.0000 C   0  0  0  0  0  0  0  0  0  0  0  0
    5.4641    5.8100    0.0000 C   0  0  3  0  0  0  0  0  0  0  0  0
    6.4641    4.8100    0.0000 C   0  0  0  0  0  0  0  0  0  0  0  0
    4.5981    6.3100    0.0000 C   0  0  0  0  0  0  0  0  0  0  0  0
    4.5981    7.3100    0.0000 C   0  0  0  0  0  0  0  0  0  0  0  0
    3.7320    7.8100    0.0000 C   0  0  0  0  0  0  0  0  0  0  0  0
    2.8660    9.3100    0.0000 C   0  0  3  0  0  0  0  0  0  0  0  0
    3.7320    8.8100    0.0000 C   0  0  0  0  0  0  0  0  0  0  0  0
    2.8660   10.3100    0.0000 C   0  0  0  0  0  0  0  0  0  0  0  0
    2.8660    7.3100    0.0000 C   0  0  0  0  0  0  0  0  0  0  0  0
    2.0000    8.8100    0.0000 C   0  0  0  0  0  0  0  0  0  0  0  0
    2.0000   10.8100    0.0000 C   0  0  0  0  0  0  0  0  0  0  0  0
   14.2576   -6.2593    0.0000 H   0  0  0  0  0  0  0  0  0  0  0  0
   13.8758   -6.6116    0.0000 H   0  0  0  0  0  0  0  0  0  0  0  0
   13.4687   -7.2982    0.0000 H   0  0  0  0  0  0  0  0  0  0  0  0
   13.4623   -8.1276    0.0000 H   0  0  0  0  0  0  0  0  0  0  0  0
   13.8588   -8.8205    0.0000 H   0  0  0  0  0  0  0  0  0  0  0  0
   16.0905   -8.8119    0.0000 H   0  0  0  0  0  0  0  0  0  0  0  0
   16.4816   -8.1160    0.0000 H   0  0  0  0  0  0  0  0  0  0  0  0
   14.5771   -9.2352    0.0000 H   0  0  0  0  0  0  0  0  0  0  0  0
   15.3754   -9.2322    0.0000 H   0  0  0  0  0  0  0  0  0  0  0  0
   14.8605   -4.6150    0.0000 H   0  0  0  0  0  0  0  0  0  0  0  0
   18.3246   -7.6150    0.0000 H   0  0  0  0  0  0  0  0  0  0  0  0
   13.2583   -4.5400    0.0000 H   0  0  0  0  0  0  0  0  0  0  0  0
   14.5520   -3.2516    0.0000 H   0  0  0  0  0  0  0  0  0  0  0  0
   17.5885   -9.0400    0.0000 H   0  0  0  0  0  0  0  0  0  0  0  0
   11.3964   -4.7650    0.0000 H   0  0  0  0  0  0  0  0  0  0  0  0
   10.6603   -3.3400    0.0000 H   0  0  0  0  0  0  0  0  0  0  0  0
   12.3923   -4.8100    0.0000 H   0  0  0  0  0  0  0  0  0  0  0  0
   18.9914   -7.0000    0.0000 H   0  0  0  0  0  0  0  0  0  0  0  0
    9.0581   -6.1150    0.0000 H   0  0  0  0  0  0  0  0  0  0  0  0
   15.5464   -4.7269    0.0000 H   0  0  0  0  0  0  0  0  0  0  0  0
   16.3933   -4.5000    0.0000 H   0  0  0  0  0  0  0  0  0  0  0  0
   16.1664   -3.6531    0.0000 H   0  0  0  0  0  0  0  0  0  0  0  0
   16.0273   -3.1340    0.0000 H   0  0  0  0  0  0  0  0  0  0  0  0
   15.8004   -2.2870    0.0000 H   0  0  0  0  0  0  0  0  0  0  0  0
   14.9534   -2.5140    0.0000 H   0  0  0  0  0  0  0  0  0  0  0  0
   11.2163   -6.2269    0.0000 H   0  0  0  0  0  0  0  0  0  0  0  0
   12.0632   -6.0000    0.0000 H   0  0  0  0  0  0  0  0  0  0  0  0
   11.8363   -5.1531    0.0000 H   0  0  0  0  0  0  0  0  0  0  0  0
    9.2573   -4.0000    0.0000 H   0  0  0  0  0  0  0  0  0  0  0  0
   14.7444   -2.1900    0.0000 H   0  0  0  0  0  0  0  0  0  0  0  0
   20.0566   -4.7650    0.0000 H   0  0  0  0  0  0  0  0  0  0  0  0
    9.2382   -4.6531    0.0000 H   0  0  0  0  0  0  0  0  0  0  0  0
    8.3913   -4.8800    0.0000 H   0  0  0  0  0  0  0  0  0  0  0  0
    8.6182   -5.7269    0.0000 H   0  0  0  0  0  0  0  0  0  0  0  0
   13.3882   -1.6150    0.0000 H   0  0  0  0  0  0  0  0  0  0  0  0
    9.6643   -1.7650    0.0000 H   0  0  0  0  0  0  0  0  0  0  0  0
   17.9175  -10.0000    0.0000 H   0  0  0  0  0  0  0  0  0  0  0  0
   19.3205   -7.5700    0.0000 H   0  0  0  0  0  0  0  0  0  0  0  0
   20.9227   -6.1150    0.0000 H   0  0  0  0  0  0  0  0  0  0  0  0
    7.3261   -3.1150    0.0000 H   0  0  0  0  0  0  0  0  0  0  0  0
   16.1024   -9.6900    0.0000 H   0  0  0  0  0  0  0  0  0  0  0  0
   16.7224  -10.3100    0.0000 H   0  0  0  0  0  0  0  0  0  0  0  0
   17.3424   -9.6900    0.0000 H   0  0  0  0  0  0  0  0  0  0  0  0
   19.8574   -3.8800    0.0000 H   0  0  0  0  0  0  0  0  0  0  0  0
   12.6477   -0.5823    0.0000 H   0  0  0  0  0  0  0  0  0  0  0  0
   13.0463   -1.2726    0.0000 H   0  0  0  0  0  0  0  0  0  0  0  0
    9.4651   -0.8800    0.0000 H   0  0  0  0  0  0  0  0  0  0  0  0
   19.3205  -10.8100    0.0000 H   0  0  0  0  0  0  0  0  0  0  0  0
   20.7235   -8.3800    0.0000 H   0  0  0  0  0  0  0  0  0  0  0  0
   19.5665   -6.6900    0.0000 H   0  0  0  0  0  0  0  0  0  0  0  0
   20.1865   -7.3100    0.0000 H   0  0  0  0  0  0  0  0  0  0  0  0
   20.8065   -6.6900    0.0000 H   0  0  0  0  0  0  0  0  0  0  0  0
    8.9282   -7.8100    0.0000 H   0  0  0  0  0  0  0  0  0  0  0  0
    8.3913   -6.8800    0.0000 H   0  0  0  0  0  0  0  0  0  0  0  0
    7.5062   -1.6531    0.0000 H   0  0  0  0  0  0  0  0  0  0  0  0
    6.6592   -1.8800    0.0000 H   0  0  0  0  0  0  0  0  0  0  0  0
    6.8862   -2.7269    0.0000 H   0  0  0  0  0  0  0  0  0  0  0  0
   18.4545   -1.8400    0.0000 H   0  0  0  0  0  0  0  0  0  0  0  0
    7.5252   -4.0000    0.0000 H   0  0  0  0  0  0  0  0  0  0  0  0
    8.5991   -4.0000    0.0000 H   0  0  0  0  0  0  0  0  0  0  0  0
    8.0622    1.1600    0.0000 H   0  0  0  0  0  0  0  0  0  0  0  0
   16.3933   -0.8800    0.0000 H   0  0  0  0  0  0  0  0  0  0  0  0
   21.5895   -5.5000    0.0000 H   0  0  0  0  0  0  0  0  0  0  0  0
   15.2458   -2.0823    0.0000 H   0  0  0  0  0  0  0  0  0  0  0  0
   15.6444   -2.7726    0.0000 H   0  0  0  0  0  0  0  0  0  0  0  0
    9.6643    1.2350    0.0000 H   0  0  0  0  0  0  0  0  0  0  0  0
   17.5885   -1.5700    0.0000 H   0  0  0  0  0  0  0  0  0  0  0  0
   19.6305   -2.7269    0.0000 H   0  0  0  0  0  0  0  0  0  0  0  0
   19.8574   -1.8800    0.0000 H   0  0  0  0  0  0  0  0  0  0  0  0
   19.0105   -1.6531    0.0000 H   0  0  0  0  0  0  0  0  0  0  0  0
   21.0526  -10.8100    0.0000 H   0  0  0  0  0  0  0  0  0  0  0  0
    6.6592    0.5000    0.0000 H   0  0  0  0  0  0  0  0  0  0  0  0
   12.7023    1.3469    0.0000 H   0  0  0  0  0  0  0  0  0  0  0  0
   11.8554    1.1200    0.0000 H   0  0  0  0  0  0  0  0  0  0  0  0
   12.0823    0.2731    0.0000 H   0  0  0  0  0  0  0  0  0  0  0  0
    9.4842   -0.2269    0.0000 H   0  0  0  0  0  0  0  0  0  0  0  0
   10.3312    0.0000    0.0000 H   0  0  0  0  0  0  0  0  0  0  0  0
   10.1042    0.8469    0.0000 H   0  0  0  0  0  0  0  0  0  0  0  0
    9.4651    2.1200    0.0000 H   0  0  0  0  0  0  0  0  0  0  0  0
    5.7196    2.4177    0.0000 H   0  0  0  0  0  0  0  0  0  0  0  0
    6.1181    1.7274    0.0000 H   0  0  0  0  0  0  0  0  0  0  0  0
    6.8671    3.6200    0.0000 H   0  0  0  0  0  0  0  0  0  0  0  0
    5.4641    6.6600    0.0000 H   0  0  0  0  0  0  0  0  0  0  0  0
    6.4641    4.1900    0.0000 H   0  0  0  0  0  0  0  0  0  0  0  0
    7.0841    4.8100    0.0000 H   0  0  0  0  0  0  0  0  0  0  0  0
    6.4641    5.4300    0.0000 H   0  0  0  0  0  0  0  0  0  0  0  0
    4.0611    6.0000    0.0000 H   0  0  0  0  0  0  0  0  0  0  0  0
    4.1541    5.3469    0.0000 H   0  0  0  0  0  0  0  0  0  0  0  0
    6.3301    6.9300    0.0000 H   0  0  0  0  0  0  0  0  0  0  0  0
    5.1350    7.6200    0.0000 H   0  0  0  0  0  0  0  0  0  0  0  0
    2.8660    8.4600    0.0000 H   0  0  0  0  0  0  0  0  0  0  0  0
    4.2690    9.1200    0.0000 H   0  0  0  0  0  0  0  0  0  0  0  0
    3.4766   10.2023    0.0000 H   0  0  0  0  0  0  0  0  0  0  0  0
    3.0781   10.8926    0.0000 H   0  0  0  0  0  0  0  0  0  0  0  0
    2.5560    7.8469    0.0000 H   0  0  0  0  0  0  0  0  0  0  0  0
    2.3291    7.0000    0.0000 H   0  0  0  0  0  0  0  0  0  0  0  0
    3.1760    6.7731    0.0000 H   0  0  0  0  0  0  0  0  0  0  0  0
    1.6900    9.3469    0.0000 H   0  0  0  0  0  0  0  0  0  0  0  0
    1.4631    8.5000    0.0000 H   0  0  0  0  0  0  0  0  0  0  0  0
    2.3100    8.2731    0.0000 H   0  0  0  0  0  0  0  0  0  0  0  0
    2.3100   11.3469    0.0000 H   0  0  0  0  0  0  0  0  0  0  0  0
    1.4631   11.1200    0.0000 H   0  0  0  0  0  0  0  0  0  0  0  0
    1.6900   10.2731    0.0000 H   0  0  0  0  0  0  0  0  0  0  0  0
  1 40  1  0  0  0  0
  1 42  1  0  0  0  0
  2 41  2  0  0  0  0
  3 42  2  0  0  0  0
  4 46  1  0  0  0  0
  4 67  1  0  0  0  0
  5 50  2  0  0  0  0
  6 53  2  0  0  0  0
  7 56  2  0  0  0  0
  8 59  2  0  0  0  0
  9 60  2  0  0  0  0
 10 65  1  0  0  0  0
 10162  1  0  0  0  0
 11 68  1  0  0  0  0
 11 83  1  0  0  0  0
 12 71  2  0  0  0  0
 13 73  1  0  0  0  0
 13170  1  0  0  0  0
 14 75  2  0  0  0  0
 15 76  2  0  0  0  0
 16 80  1  0  0  0  0
 16178  1  0  0  0  0
 17 82  2  0  0  0  0
 18 85  2  0  0  0  0
 19 87  1  0  0  0  0
 19187  1  0  0  0  0
 20 88  2  0  0  0  0
 21 89  1  0  0  0  0
 21188  1  0  0  0  0
 22 35  1  0  0  0  0
 22 38  1  0  0  0  0
 22 41  1  0  0  0  0
 23 44  1  0  0  0  0
 23 50  1  0  0  0  0
 23116  1  0  0  0  0
 24 43  1  0  0  0  0
 24 56  1  0  0  0  0
 24117  1  0  0  0  0
 25 48  1  0  0  0  0
 25 60  1  0  0  0  0
 25128  1  0  0  0  0
 26 53  1  0  0  0  0
 26 61  1  0  0  0  0
 26129  1  0  0  0  0
 27 57  1  0  0  0  0
 27 75  1  0  0  0  0
 27143  1  0  0  0  0
 28 62  1  0  0  0  0
 28 76  1  0  0  0  0
 28146  1  0  0  0  0
 29 59  1  0  0  0  0
 29152  1  0  0  0  0
 29153  1  0  0  0  0
 30 66  1  0  0  0  0
 30158  1  0  0  0  0
 30159  1  0  0  0  0
 31 71  1  0  0  0  0
 31 79  1  0  0  0  0
 31161  1  0  0  0  0
 32 77  1  0  0  0  0
 32 82  1  0  0  0  0
 32166  1  0  0  0  0
 33 78  1  0  0  0  0
 33 85  1  0  0  0  0
 33171  1  0  0  0  0
 34 86  1  0  0  0  0
 34 88  1  0  0  0  0
 34181  1  0  0  0  0
 35 36  1  0  0  0  0
 35 42  1  0  0  0  0
 35100  1  0  0  0  0
 36 37  1  0  0  0  0
 36101  1  0  0  0  0
 36102  1  0  0  0  0
 37 39  1  0  0  0  0
 37103  1  0  0  0  0
 37104  1  0  0  0  0
 38 39  1  0  0  0  0
 38105  1  0  0  0  0
 38106  1  0  0  0  0
 39107  1  0  0  0  0
 39108  1  0  0  0  0
 40 44  1  0  0  0  0
 40 45  1  0  0  0  0
 40109  1  0  0  0  0
 41 43  1  0  0  0  0
 43 46  1  0  0  0  0
 43110  1  0  0  0  0
 44 53  1  0  0  0  0
 44111  1  0  0  0  0
 45 51  1  0  0  0  0
 45 52  1  0  0  0  0
 45112  1  0  0  0  0
 46 54  1  0  0  0  0
 46113  1  0  0  0  0
 47 48  1  0  0  0  0
 47 49  1  0  0  0  0
 47 55  1  0  0  0  0
 47114  1  0  0  0  0
 48 50  1  0  0  0  0
 48115  1  0  0  0  0
 49 58  1  0  0  0  0
 49 59  1  0  0  0  0
 49118  1  0  0  0  0
 51119  1  0  0  0  0
 51120  1  0  0  0  0
 51121  1  0  0  0  0
 52122  1  0  0  0  0
 52123  1  0  0  0  0
 52124  1  0  0  0  0
 54 63  2  0  0  0  0
 54 64  1  0  0  0  0
 55125  1  0  0  0  0
 55126  1  0  0  0  0
 55127  1  0  0  0  0
 56 57  1  0  0  0  0
 57 65  1  0  0  0  0
 57130  1  0  0  0  0
 58131  1  0  0  0  0
 58132  1  0  0  0  0
 58133  1  0  0  0  0
 60 62  1  0  0  0  0
 61 68  1  0  0  0  0
 61 71  1  0  0  0  0
 61134  1  0  0  0  0
 62 66  1  0  0  0  0
 62135  1  0  0  0  0
 63 69  1  0  0  0  0
 63136  1  0  0  0  0
 64 70  2  0  0  0  0
 64137  1  0  0  0  0
 65 72  1  0  0  0  0
 65138  1  0  0  0  0
 66 74  1  0  0  0  0
 66139  1  0  0  0  0
 67140  1  0  0  0  0
 67141  1  0  0  0  0
 67142  1  0  0  0  0
 68144  1  0  0  0  0
 68145  1  0  0  0  0
 69 73  2  0  0  0  0
 69147  1  0  0  0  0
 70 73  1  0  0  0  0
 70148  1  0  0  0  0
 72149  1  0  0  0  0
 72150  1  0  0  0  0
 72151  1  0  0  0  0
 74154  1  0  0  0  0
 74155  1  0  0  0  0
 74156  1  0  0  0  0
 75 77  1  0  0  0  0
 76 78  1  0  0  0  0
 77 81  1  0  0  0  0
 77157  1  0  0  0  0
 78 80  1  0  0  0  0
 78160  1  0  0  0  0
 79 82  1  0  0  0  0
 79163  1  0  0  0  0
 79164  1  0  0  0  0
 80 84  1  0  0  0  0
 80165  1  0  0  0  0
 81167  1  0  0  0  0
 81168  1  0  0  0  0
 81169  1  0  0  0  0
 83172  1  0  0  0  0
 83173  1  0  0  0  0
 83174  1  0  0  0  0
 84175  1  0  0  0  0
 84176  1  0  0  0  0
 84177  1  0  0  0  0
 85 86  1  0  0  0  0
 86179  1  0  0  0  0
 86180  1  0  0  0  0
 87 88  1  0  0  0  0
 87 89  1  0  0  0  0
 87 90  1  0  0  0  0
 89 91  1  0  0  0  0
 89182  1  0  0  0  0
 90183  1  0  0  0  0
 90184  1  0  0  0  0
 90185  1  0  0  0  0
 91 92  2  3  0  0  0
 91186  1  0  0  0  0
 92 93  1  0  0  0  0
 92189  1  0  0  0  0
 93 95  2  3  0  0  0
 93 97  1  0  0  0  0
 94 95  1  0  0  0  0
 94 96  1  0  0  0  0
 94 98  1  0  0  0  0
 94190  1  0  0  0  0
 95191  1  0  0  0  0
 96 99  1  0  0  0  0
 96192  1  0  0  0  0
 96193  1  0  0  0  0
 97194  1  0  0  0  0
 97195  1  0  0  0  0
 97196  1  0  0  0  0
 98197  1  0  0  0  0
 98198  1  0  0  0  0
 98199  1  0  0  0  0
 99200  1  0  0  0  0
 99201  1  0  0  0  0
 99202  1  0  0  0  0
M  END
> <PUBCHEM_COMPOUND_CID>
4682

> <PUBCHEM_COMPOUND_CANONICALIZED>
1

> <PUBCHEM_CACTVS_COMPLEXITY>
2890

> <PUBCHEM_CACTVS_HBOND_ACCEPTOR>
22

> <PUBCHEM_CACTVS_HBOND_DONOR>
17

> <PUBCHEM_CACTVS_ROTATABLE_BOND>
27

> <PUBCHEM_CACTVS_SUBSKEYS>
AAADcfB//gAAAAAAAAAAAAAAAAAAAAAAAAA8QAAAAAAAAAABAAAAHgAQCAAADXzhmAYyDoPABgCIAiHSGAICAAAgIAAIiIHOCIgLdj6C8TuXcAAm9hGZuAec66yOoAAAAAAAAABAAAAAAAAAAAAAAAAAAA==

> <PUBCHEM_IUPAC_OPENEYE_NAME>
4-[[3-amino-2-[[2-[[2-[(2,3-dihydroxy-2,6,8-trimethyl-deca-4,6-dienoyl)amino]acetyl]amino]-3-hydroxy-butanoyl]amino]butanoyl]amino]-N'-[6-(1-hydroxyethyl)-3-[(4-hydroxyphenyl)-methoxy-methyl]-19-isopropyl-15-(methoxymethyl)-9-methyl-2,5,8,11,14,17,21-heptaoxo-20-oxa-1,4,7,10,13,16-hexazabicyclo[20.4.0]hexacosan-18-yl]-2,3-dimethyl-pentanediamide

> <PUBCHEM_IUPAC_CAS_NAME>
4-[[3-amino-2-[[2-[[2-[(2,3-dihydroxy-2,6,8-trimethyl-1-oxodeca-4,6-dienyl)amino]-1-oxoethyl]amino]-3-hydroxy-1-oxobutyl]amino]-1-oxobutyl]amino]-N'-[6-(1-hydroxyethyl)-3-[(4-hydroxyphenyl)-methoxymethyl]-15-(methoxymethyl)-9-methyl-2,5,8,11,14,17,21-heptaoxo-19-propan-2-yl-20-oxa-1,4,7,10,13,16-hexazabicyclo[20.4.0]hexacosan-18-yl]-2,3-dimethylpentanediamide

> <PUBCHEM_IUPAC_NAME>
4-[[3-amino-2-[[2-[[2-[(2,3-dihydroxy-2,6,8-trimethyldeca-4,6-dienoyl)amino]acetyl]amino]-3-hydroxybutanoyl]amino]butanoyl]amino]-N'-[6-(1-hydroxyethyl)-3-[(4-hydroxyphenyl)-methoxymethyl]-15-(methoxymethyl)-9-methyl-2,5,8,11,14,17,21-heptaoxo-19-propan-2-yl-20-oxa-1,4,7,10,13,16-hexazabicyclo[20.4.0]hexacosan-18-yl]-2,3-dimethylpentanediamide

> <PUBCHEM_IUPAC_SYSTEMATIC_NAME>
4-[[3-azanyl-2-[[3-oxidanyl-2-[2-[[2,6,8-trimethyl-2,3-bis(oxidanyl)deca-4,6-dienoyl]amino]ethanoylamino]butanoyl]amino]butanoyl]amino]-N'-[6-(1-hydroxyethyl)-3-[(4-hydroxyphenyl)-methoxy-methyl]-15-(methoxymethyl)-9-methyl-2,5,8,11,14,17,21-heptakis(oxidanylidene)-19-propan-2-yl-20-oxa-1,4,7,10,13,16-hexazabicyclo[20.4.0]hexacosan-18-yl]-2,3-dimethyl-pentanediamide

> <PUBCHEM_IUPAC_TRADITIONAL_NAME>
4-[[3-amino-2-[[2-[[2-[(2,3-dihydroxy-2,6,8-trimethyl-deca-4,6-dienoyl)amino]acetyl]amino]-3-hydroxy-butanoyl]amino]butanoyl]amino]-N'-[6-(1-hydroxyethyl)-3-[(4-hydroxyphenyl)-methoxy-methyl]-19-isopropyl-2,5,8,11,14,17,21-heptaketo-15-(methoxymethyl)-9-methyl-20-oxa-1,4,7,10,13,16-hexazabicyclo[20.4.0]hexacosan-18-yl]-2,3-dimethyl-glutaramide

> <PUBCHEM_IUPAC_INCHI>
InChI=1S/C65H103N13O21/c1-15-31(4)26-32(5)19-24-43(82)65(12,96)64(95)69-28-45(84)72-48(37(10)79)59(90)74-47(35(8)66)58(89)73-46(33(6)34(7)54(67)85)57(88)76-50-52(30(2)3)99-63(94)42-18-16-17-25-78(42)62(93)51(53(98-14)39-20-22-40(81)23-21-39)77-60(91)49(38(11)80)75-55(86)36(9)70-44(83)27-68-56(87)41(29-97-13)71-61(50)92/h19-24,26,30-31,33-38,41-43,46-53,79-82,96H,15-18,25,27-29,66H2,1-14H3,(H2,67,85)(H,68,87)(H,69,95)(H,70,83)(H,71,92)(H,72,84)(H,73,89)(H,74,90)(H,75,86)(H,76,88)(H,77,91)

> <PUBCHEM_IUPAC_INCHIKEY>
HQVFHDUBRNXXHV-UHFFFAOYSA-N

> <PUBCHEM_XLOGP3_AA>
-1.2

> <PUBCHEM_EXACT_MASS>
1401.739147

> <PUBCHEM_MOLECULAR_FORMULA>
C65H103N13O21

> <PUBCHEM_MOLECULAR_WEIGHT>
1402.58782

> <PUBCHEM_OPENEYE_CAN_SMILES>
CCC(C)C=C(C)C=CC(C(C)(C(=O)NCC(=O)NC(C(C)O)C(=O)NC(C(C)N)C(=O)NC(C(C)C(C)C(=O)N)C(=O)NC1C(OC(=O)C2CCCCN2C(=O)C(NC(=O)C(NC(=O)C(NC(=O)CNC(=O)C(NC1=O)COC)C)C(C)O)C(C3=CC=C(C=C3)O)OC)C(C)C)O)O

> <PUBCHEM_OPENEYE_ISO_SMILES>
CCC(C)C=C(C)C=CC(C(C)(C(=O)NCC(=O)NC(C(C)O)C(=O)NC(C(C)N)C(=O)NC(C(C)C(C)C(=O)N)C(=O)NC1C(OC(=O)C2CCCCN2C(=O)C(NC(=O)C(NC(=O)C(NC(=O)CNC(=O)C(NC1=O)COC)C)C(C)O)C(C3=CC=C(C=C3)O)OC)C(C)C)O)O

> <PUBCHEM_CACTVS_TPSA>
526

> <PUBCHEM_MONOISOTOPIC_WEIGHT>
1401.739147

> <PUBCHEM_TOTAL_CHARGE>
0

> <PUBCHEM_HEAVY_ATOM_COUNT>
99

> <PUBCHEM_ATOM_DEF_STEREO_COUNT>
0

> <PUBCHEM_ATOM_UDEF_STEREO_COUNT>
19

> <PUBCHEM_BOND_DEF_STEREO_COUNT>
0

> <PUBCHEM_BOND_UDEF_STEREO_COUNT>
2

> <PUBCHEM_ISOTOPIC_ATOM_COUNT>
0

> <PUBCHEM_COMPONENT_COUNT>
1

> <PUBCHEM_CACTVS_TAUTO_COUNT>
1001

> <PUBCHEM_COORDINATE_TYPE>
1
5
255

> <PUBCHEM_BONDANNOTATIONS>
35  100  3
40  109  3
43  110  3
44  111  3
46  113  3
47  114  3
48  115  3
49  118  3
54  63  8
54  64  8
57  130  3
61  134  3
62  135  3
63  69  8
64  70  8
65  138  3
66  139  3
69  73  8
70  73  8
77  157  3
78  160  3
80  165  3
87  88  3
89  182  3
91  92  1
93  95  1
94  190  3

$$$$

