17395845
  -OEChem-06241222523D

 47 49  0     0  0  0  0  0  0999 V2000
   -3.3160    1.6046   -1.6682 F   0  0  0  0  0  0  0  0  0  0  0  0
    4.5843    0.9926    2.0456 F   0  0  0  0  0  0  0  0  0  0  0  0
    2.9578    2.7576    0.3818 O   0  0  0  0  0  0  0  0  0  0  0  0
    6.5913   -2.2078   -0.8340 O   0  0  0  0  0  0  0  0  0  0  0  0
   -7.8003   -0.4798   -0.7356 O   0  0  0  0  0  0  0  0  0  0  0  0
   -1.5486    0.4412    0.1254 N   0  0  0  0  0  0  0  0  0  0  0  0
    1.2500    1.1844    0.1312 N   0  0  0  0  0  0  0  0  0  0  0  0
   -1.1244    1.7948   -0.2431 C   0  0  0  0  0  0  0  0  0  0  0  0
   -0.5192   -0.5205    0.5290 C   0  0  0  0  0  0  0  0  0  0  0  0
    0.1966    2.1481    0.4360 C   0  0  0  0  0  0  0  0  0  0  0  0
    0.8184   -0.1917   -0.1339 C   0  0  0  0  0  0  0  0  0  0  0  0
   -2.8952    0.0858    0.1085 C   0  0  0  0  0  0  0  0  0  0  0  0
    2.5827    1.6069    0.1608 C   0  0  0  0  0  0  0  0  0  0  0  0
   -3.7657    0.6861   -0.8013 C   0  0  0  0  0  0  0  0  0  0  0  0
   -3.3727   -0.8720    1.0030 C   0  0  0  0  0  0  0  0  0  0  0  0
    3.6334    0.6089   -0.0965 C   0  0  0  0  0  0  0  0  0  0  0  0
   -5.1140    0.3285   -0.8164 C   0  0  0  0  0  0  0  0  0  0  0  0
   -4.7208   -1.2295    0.9879 C   0  0  0  0  0  0  0  0  0  0  0  0
   -5.5915   -0.6293    0.0783 C   0  0  0  0  0  0  0  0  0  0  0  0
    4.6007    0.3435    0.8729 C   0  0  0  0  0  0  0  0  0  0  0  0
    3.6600   -0.0725   -1.3133 C   0  0  0  0  0  0  0  0  0  0  0  0
    5.5946   -0.6034    0.6252 C   0  0  0  0  0  0  0  0  0  0  0  0
    4.6538   -1.0193   -1.5609 C   0  0  0  0  0  0  0  0  0  0  0  0
   -6.9979   -0.9994    0.0654 C   0  0  0  0  0  0  0  0  0  0  0  0
    5.6210   -1.2849   -0.5916 C   0  0  0  0  0  0  0  0  0  0  0  0
   -7.5270   -2.0427    1.0435 C   0  0  0  0  0  0  0  0  0  0  0  0
    7.5488   -2.4304    0.2002 C   0  0  0  0  0  0  0  0  0  0  0  0
   -1.8687    2.5390    0.0651 H   0  0  0  0  0  0  0  0  0  0  0  0
   -0.9993    1.8548   -1.3310 H   0  0  0  0  0  0  0  0  0  0  0  0
   -0.7973   -1.5404    0.2364 H   0  0  0  0  0  0  0  0  0  0  0  0
   -0.4100   -0.4967    1.6202 H   0  0  0  0  0  0  0  0  0  0  0  0
    0.0768    2.1518    1.5266 H   0  0  0  0  0  0  0  0  0  0  0  0
    0.5160    3.1535    0.1407 H   0  0  0  0  0  0  0  0  0  0  0  0
    0.7267   -0.2946   -1.2216 H   0  0  0  0  0  0  0  0  0  0  0  0
    1.5697   -0.9040    0.2183 H   0  0  0  0  0  0  0  0  0  0  0  0
   -2.7242   -1.3469    1.7342 H   0  0  0  0  0  0  0  0  0  0  0  0
   -5.7722    0.8102   -1.5345 H   0  0  0  0  0  0  0  0  0  0  0  0
   -5.0514   -1.9760    1.7033 H   0  0  0  0  0  0  0  0  0  0  0  0
    2.9295    0.1370   -2.0901 H   0  0  0  0  0  0  0  0  0  0  0  0
    6.3144   -0.7602    1.4212 H   0  0  0  0  0  0  0  0  0  0  0  0
    4.6726   -1.5431   -2.5127 H   0  0  0  0  0  0  0  0  0  0  0  0
   -8.6000   -2.1796    0.8747 H   0  0  0  0  0  0  0  0  0  0  0  0
   -7.0339   -3.0035    0.8751 H   0  0  0  0  0  0  0  0  0  0  0  0
   -7.3884   -1.7010    2.0725 H   0  0  0  0  0  0  0  0  0  0  0  0
    8.1397   -1.5304    0.4019 H   0  0  0  0  0  0  0  0  0  0  0  0
    7.0783   -2.8294    1.1052 H   0  0  0  0  0  0  0  0  0  0  0  0
    8.2441   -3.1947   -0.1621 H   0  0  0  0  0  0  0  0  0  0  0  0
  1 14  1  0  0  0  0
  2 20  1  0  0  0  0
  3 13  2  0  0  0  0
  4 25  1  0  0  0  0
  4 27  1  0  0  0  0
  5 24  2  0  0  0  0
  6  8  1  0  0  0  0
  6  9  1  0  0  0  0
  6 12  1  0  0  0  0
  7 10  1  0  0  0  0
  7 11  1  0  0  0  0
  7 13  1  0  0  0  0
  8 10  1  0  0  0  0
  8 28  1  0  0  0  0
  8 29  1  0  0  0  0
  9 11  1  0  0  0  0
  9 30  1  0  0  0  0
  9 31  1  0  0  0  0
 10 32  1  0  0  0  0
 10 33  1  0  0  0  0
 11 34  1  0  0  0  0
 11 35  1  0  0  0  0
 12 14  2  0  0  0  0
 12 15  1  0  0  0  0
 13 16  1  0  0  0  0
 14 17  1  0  0  0  0
 15 18  2  0  0  0  0
 15 36  1  0  0  0  0
 16 20  2  0  0  0  0
 16 21  1  0  0  0  0
 17 19  2  0  0  0  0
 17 37  1  0  0  0  0
 18 19  1  0  0  0  0
 18 38  1  0  0  0  0
 19 24  1  0  0  0  0
 20 22  1  0  0  0  0
 21 23  2  0  0  0  0
 21 39  1  0  0  0  0
 22 25  2  0  0  0  0
 22 40  1  0  0  0  0
 23 25  1  0  0  0  0
 23 41  1  0  0  0  0
 24 26  1  0  0  0  0
 26 42  1  0  0  0  0
 26 43  1  0  0  0  0
 26 44  1  0  0  0  0
 27 45  1  0  0  0  0
 27 46  1  0  0  0  0
 27 47  1  0  0  0  0
M  END
> <PUBCHEM_COMPOUND_CID>
17395845

> <PUBCHEM_CONFORMER_RMSD>
0.8

> <PUBCHEM_CONFORMER_DIVERSEORDER>
5
66
30
35
74
9
52
21
32
72
25
24
73
71
12
36
58
67
69
48
51
38
60
29
17
6
11
40
44
22
59
23
33
50
7
57
46
53
78
49
61
45
27
39
64
54
65
16
56
63
42
26
18
55
68
4
19
79
75
15
20
77
62
28
8
34
13
31
3
14
70
37
2
1
10
76
43
47
41

> <PUBCHEM_MMFF94_PARTIAL_CHARGES>
33
1 -0.19
10 0.3
11 0.3
12 0.1
13 0.54
14 0.19
15 -0.15
16 0.09
17 -0.15
18 -0.15
19 0.09
2 -0.19
20 0.19
21 -0.15
22 -0.15
23 -0.15
24 0.42
25 0.08
26 0.06
27 0.28
3 -0.57
36 0.15
37 0.15
38 0.15
39 0.15
4 -0.36
40 0.15
41 0.15
5 -0.57
6 -0.84
7 -0.66
8 0.37
9 0.37

> <PUBCHEM_EFFECTIVE_ROTOR_COUNT>
6.2

> <PUBCHEM_PHARMACOPHORE_FEATURES>
7
1 3 acceptor
1 4 acceptor
1 5 acceptor
1 6 cation
6 12 14 15 17 18 19 rings
6 16 20 21 22 23 25 rings
6 6 7 8 9 10 11 rings

> <PUBCHEM_HEAVY_ATOM_COUNT>
27

> <PUBCHEM_ATOM_DEF_STEREO_COUNT>
0

> <PUBCHEM_ATOM_UDEF_STEREO_COUNT>
0

> <PUBCHEM_BOND_DEF_STEREO_COUNT>
0

> <PUBCHEM_BOND_UDEF_STEREO_COUNT>
0

> <PUBCHEM_ISOTOPIC_ATOM_COUNT>
0

> <PUBCHEM_COMPONENT_COUNT>
1

> <PUBCHEM_CACTVS_TAUTO_COUNT>
2

> <PUBCHEM_CONFORMER_ID>
0109708500000005

> <PUBCHEM_MMFF94_ENERGY>
96.9264

> <PUBCHEM_FEATURE_SELFOVERLAP>
35.52

> <PUBCHEM_SHAPE_FINGERPRINT>
10670039 82 16702024222376499397
11524674 6 17968094193115174015
117089 54 17827629577007194942
11796584 16 17632574903577348642
11963148 33 18059582351970016331
12166972 35 17988918972729105372
12236239 1 16588019096593926849
12616971 3 17095245804387278077
13533116 47 17894630323161410344
13668630 136 18341894103735115098
13685833 64 18335137591928872823
13782708 43 18340769248196285379
13862211 1 18408600374696371022
13914758 101 18040147440803817257
14216079 64 18408322206892139415
14294032 229 17201646777822419877
14341114 328 14707213201838874544
14528608 73 12679463062388064872
15183329 4 16486972911989846462
15188451 53 17894629279336430418
15510800 12 18261662766480175086
15575132 122 13110695947335863743
17844677 252 18343299254247991973
19377110 9 15429753986180876138
1979834 28 17022894671130810582
20028762 73 17967811652242736598
2026 5 18340206400806075970
20397935 70 17240475914760199942
21130935 74 18262515871865883043
21150785 3 16630522921240428438
21267235 1 18411133645165204977
21279426 13 18342747333807393173
21344244 78 16515402989272244352
21623969 137 17967810561283619734
21682296 61 18335696169769331511
21781051 124 17632566120533025115
21792934 111 17821732762591034305
22061861 79 18410575072126349909
22224240 67 7709458316956793717
2297311 6 17846498128351437693
23522609 53 18051094160446781877
23559900 14 18130222662264819604
24771293 8 8142076550935004667
3004659 81 17775566438140643108
3383291 50 18410575080653923179
34797466 226 17560516192753179389
4340502 62 14345788357678990844
439807 62 18272647978093578734
465052 167 18334290964149958318
504579 68 15985103019924981022
5104073 3 17894911871347900128
5219985 13 17406828489454787148
5718773 13 18337953523677766206
636775 8 18337943589513330678
6438161 24 18131074848701983210
86090 222 18042104579437806406
8988823 20 17095525063466585408
9962374 69 18187938231172664910

> <PUBCHEM_SHAPE_MULTIPOLES>
513.53
21.51
2.24
1.24
9.27
0.27
0.04
-16.58
0.48
-1.98
-0.2
-0.56
0.01
2.19

> <PUBCHEM_SHAPE_SELFOVERLAP>
1106.221

> <PUBCHEM_SHAPE_VOLUME>
283.2

> <PUBCHEM_COORDINATE_TYPE>
2
5
10

$$$$

