17396487
  -OEChem-06241222562D

 35 37  0     0  0  0  0  0  0999 V2000
    4.6783   -0.4118    0.0000 O   0  0  0  0  0  0  0  0  0  0  0  0
    9.8497   -0.5301    0.0000 O   0  0  0  0  0  0  0  0  0  0  0  0
    6.7619    1.2589    0.0000 O   0  0  0  0  0  0  0  0  0  0  0  0
    6.7619   -0.4731    0.0000 N   0  0  0  0  0  0  0  0  0  0  0  0
    4.6783    1.1976    0.0000 C   0  0  0  0  0  0  0  0  0  0  0  0
    3.7320    0.8929    0.0000 C   0  0  0  0  0  0  0  0  0  0  0  0
    5.2619    0.3929    0.0000 C   0  0  0  0  0  0  0  0  0  0  0  0
    3.7320   -0.1071    0.0000 C   0  0  0  0  0  0  0  0  0  0  0  0
    7.7619   -0.4731    0.0000 C   0  0  0  0  0  0  0  0  0  0  0  0
    8.2619   -1.3391    0.0000 C   0  0  0  0  0  0  0  0  0  0  0  0
    6.2619    0.3929    0.0000 C   0  0  0  0  0  0  0  0  0  0  0  0
    2.8660    1.3929    0.0000 C   0  0  0  0  0  0  0  0  0  0  0  0
    4.9889    2.1482    0.0000 C   0  0  0  0  0  0  0  0  0  0  0  0
    9.2619   -1.3391    0.0000 C   0  0  0  0  0  0  0  0  0  0  0  0
    2.8660   -0.6071    0.0000 C   0  0  0  0  0  0  0  0  0  0  0  0
    2.0000    0.8929    0.0000 C   0  0  0  0  0  0  0  0  0  0  0  0
    2.0000   -0.1071    0.0000 C   0  0  0  0  0  0  0  0  0  0  0  0
    9.8497   -2.1482    0.0000 C   0  0  0  0  0  0  0  0  0  0  0  0
   10.8007   -1.8391    0.0000 C   0  0  0  0  0  0  0  0  0  0  0  0
   10.8007   -0.8391    0.0000 C   0  0  0  0  0  0  0  0  0  0  0  0
    8.3445   -0.2611    0.0000 H   0  0  0  0  0  0  0  0  0  0  0  0
    7.6542    0.1375    0.0000 H   0  0  0  0  0  0  0  0  0  0  0  0
    7.6793   -1.5512    0.0000 H   0  0  0  0  0  0  0  0  0  0  0  0
    8.3695   -1.9497    0.0000 H   0  0  0  0  0  0  0  0  0  0  0  0
    6.4519   -1.0100    0.0000 H   0  0  0  0  0  0  0  0  0  0  0  0
    2.8660    2.0129    0.0000 H   0  0  0  0  0  0  0  0  0  0  0  0
    5.5783    1.9556    0.0000 H   0  0  0  0  0  0  0  0  0  0  0  0
    5.1815    2.7375    0.0000 H   0  0  0  0  0  0  0  0  0  0  0  0
    4.3996    2.3408    0.0000 H   0  0  0  0  0  0  0  0  0  0  0  0
    2.8660   -1.2271    0.0000 H   0  0  0  0  0  0  0  0  0  0  0  0
    1.4631    1.2029    0.0000 H   0  0  0  0  0  0  0  0  0  0  0  0
    1.4631   -0.4171    0.0000 H   0  0  0  0  0  0  0  0  0  0  0  0
    9.6581   -2.7378    0.0000 H   0  0  0  0  0  0  0  0  0  0  0  0
   11.3023   -2.2036    0.0000 H   0  0  0  0  0  0  0  0  0  0  0  0
   11.3023   -0.4747    0.0000 H   0  0  0  0  0  0  0  0  0  0  0  0
  1  7  1  0  0  0  0
  1  8  1  0  0  0  0
  2 14  1  0  0  0  0
  2 20  1  0  0  0  0
  3 11  2  0  0  0  0
  4  9  1  0  0  0  0
  4 11  1  0  0  0  0
  4 25  1  0  0  0  0
  5  6  1  0  0  0  0
  5  7  2  0  0  0  0
  5 13  1  0  0  0  0
  6  8  1  0  0  0  0
  6 12  2  0  0  0  0
  7 11  1  0  0  0  0
  8 15  2  0  0  0  0
  9 10  1  0  0  0  0
  9 21  1  0  0  0  0
  9 22  1  0  0  0  0
 10 14  1  0  0  0  0
 10 23  1  0  0  0  0
 10 24  1  0  0  0  0
 12 16  1  0  0  0  0
 12 26  1  0  0  0  0
 13 27  1  0  0  0  0
 13 28  1  0  0  0  0
 13 29  1  0  0  0  0
 14 18  2  0  0  0  0
 15 17  1  0  0  0  0
 15 30  1  0  0  0  0
 16 17  2  0  0  0  0
 16 31  1  0  0  0  0
 17 32  1  0  0  0  0
 18 19  1  0  0  0  0
 18 33  1  0  0  0  0
 19 20  2  0  0  0  0
 19 34  1  0  0  0  0
 20 35  1  0  0  0  0
M  END
> <PUBCHEM_COMPOUND_CID>
17396487

> <PUBCHEM_COMPOUND_CANONICALIZED>
1

> <PUBCHEM_CACTVS_COMPLEXITY>
347

> <PUBCHEM_CACTVS_HBOND_ACCEPTOR>
3

> <PUBCHEM_CACTVS_HBOND_DONOR>
1

> <PUBCHEM_CACTVS_ROTATABLE_BOND>
4

> <PUBCHEM_CACTVS_SUBSKEYS>
AAADccB6MAAAAAAAAAAAAAAAAAAAASJAAAAwAAAAAAAAAEgB/AAAHgAQAAAADAThmAYyBsLABECIAqlSkAKCCAAkIAAIiIHODMgOJjqEtT+HOSjm1hGYqYeY3+LugAAAAAAIAAAAAAAAABAAAAAAAAAAAA==

> <PUBCHEM_IUPAC_OPENEYE_NAME>
N-[2-(2-furyl)ethyl]-3-methyl-benzofuran-2-carboxamide

> <PUBCHEM_IUPAC_CAS_NAME>
N-[2-(2-furanyl)ethyl]-3-methyl-2-benzofurancarboxamide

> <PUBCHEM_IUPAC_NAME>
N-[2-(furan-2-yl)ethyl]-3-methyl-1-benzofuran-2-carboxamide

> <PUBCHEM_IUPAC_SYSTEMATIC_NAME>
N-[2-(furan-2-yl)ethyl]-3-methyl-1-benzofuran-2-carboxamide

> <PUBCHEM_IUPAC_TRADITIONAL_NAME>
N-[2-(2-furyl)ethyl]-3-methyl-coumarilamide

> <PUBCHEM_IUPAC_INCHI>
InChI=1S/C16H15NO3/c1-11-13-6-2-3-7-14(13)20-15(11)16(18)17-9-8-12-5-4-10-19-12/h2-7,10H,8-9H2,1H3,(H,17,18)

> <PUBCHEM_IUPAC_INCHIKEY>
BTYPDNLNMWEDPW-UHFFFAOYSA-N

> <PUBCHEM_XLOGP3_AA>
3.4

> <PUBCHEM_EXACT_MASS>
269.105193

> <PUBCHEM_MOLECULAR_FORMULA>
C16H15NO3

> <PUBCHEM_MOLECULAR_WEIGHT>
269.2952

> <PUBCHEM_OPENEYE_CAN_SMILES>
CC1=C(OC2=CC=CC=C12)C(=O)NCCC3=CC=CO3

> <PUBCHEM_OPENEYE_ISO_SMILES>
CC1=C(OC2=CC=CC=C12)C(=O)NCCC3=CC=CO3

> <PUBCHEM_CACTVS_TPSA>
55.4

> <PUBCHEM_MONOISOTOPIC_WEIGHT>
269.105193

> <PUBCHEM_TOTAL_CHARGE>
0

> <PUBCHEM_HEAVY_ATOM_COUNT>
20

> <PUBCHEM_ATOM_DEF_STEREO_COUNT>
0

> <PUBCHEM_ATOM_UDEF_STEREO_COUNT>
0

> <PUBCHEM_BOND_DEF_STEREO_COUNT>
0

> <PUBCHEM_BOND_UDEF_STEREO_COUNT>
0

> <PUBCHEM_ISOTOPIC_ATOM_COUNT>
0

> <PUBCHEM_COMPONENT_COUNT>
1

> <PUBCHEM_CACTVS_TAUTO_COUNT>
2

> <PUBCHEM_COORDINATE_TYPE>
1
5
255

> <PUBCHEM_BONDANNOTATIONS>
1  7  8
1  8  8
12  16  8
14  18  8
15  17  8
16  17  8
18  19  8
19  20  8
2  14  8
2  20  8
5  6  8
5  7  8
6  12  8
6  8  8
8  15  8

$$$$

