582811
  -OEChem-06241222443D

 17 17  0     1  0  0  0  0  0999 V2000
    2.6512    1.0615    0.1702 S   0  0  0  0  0  0  0  0  0  0  0  0
    1.1307   -1.1011   -0.0056 O   0  0  0  0  0  0  0  0  0  0  0  0
    0.0542    0.9969   -0.1725 N   0  0  0  0  0  0  0  0  0  0  0  0
   -1.2397    0.3386   -0.3570 C   0  0  1  0  0  0  0  0  0  0  0  0
   -1.2684   -1.0010    0.3634 C   0  0  0  0  0  0  0  0  0  0  0  0
   -0.1034   -1.8247   -0.1419 C   0  0  0  0  0  0  0  0  0  0  0  0
   -2.3255    1.2685    0.1721 C   0  0  0  0  0  0  0  0  0  0  0  0
    1.1009    0.2613   -0.0288 C   0  0  0  0  0  0  0  0  0  0  0  0
   -1.4067    0.1903   -1.4314 H   0  0  0  0  0  0  0  0  0  0  0  0
   -2.2141   -1.5255    0.1909 H   0  0  0  0  0  0  0  0  0  0  0  0
   -1.1618   -0.8453    1.4446 H   0  0  0  0  0  0  0  0  0  0  0  0
   -0.0135   -2.7500    0.4357 H   0  0  0  0  0  0  0  0  0  0  0  0
   -0.2240   -2.0954   -1.1964 H   0  0  0  0  0  0  0  0  0  0  0  0
   -2.3046    2.2274   -0.3571 H   0  0  0  0  0  0  0  0  0  0  0  0
   -3.3183    0.8274    0.0373 H   0  0  0  0  0  0  0  0  0  0  0  0
   -2.1849    1.4789    1.2382 H   0  0  0  0  0  0  0  0  0  0  0  0
    2.1933    2.3197    0.0964 H   0  0  0  0  0  0  0  0  0  0  0  0
  1  8  1  0  0  0  0
  1 17  1  0  0  0  0
  2  6  1  0  0  0  0
  2  8  1  0  0  0  0
  3  4  1  0  0  0  0
  3  8  2  0  0  0  0
  4  5  1  0  0  0  0
  4  7  1  0  0  0  0
  4  9  1  0  0  0  0
  5  6  1  0  0  0  0
  5 10  1  0  0  0  0
  5 11  1  0  0  0  0
  6 12  1  0  0  0  0
  6 13  1  0  0  0  0
  7 14  1  0  0  0  0
  7 15  1  0  0  0  0
  7 16  1  0  0  0  0
M  END
> <PUBCHEM_COMPOUND_CID>
582811

> <PUBCHEM_CONFORMER_RMSD>
0.4

> <PUBCHEM_CONFORMER_DIVERSEORDER>
1
2

> <PUBCHEM_MMFF94_PARTIAL_CHARGES>
7
1 -0.32
17 0.18
2 -0.43
3 -0.7
4 0.25
6 0.28
8 0.74

> <PUBCHEM_EFFECTIVE_ROTOR_COUNT>
0.8

> <PUBCHEM_PHARMACOPHORE_FEATURES>
1
6 2 3 4 5 6 8 rings

> <PUBCHEM_HEAVY_ATOM_COUNT>
8

> <PUBCHEM_ATOM_DEF_STEREO_COUNT>
0

> <PUBCHEM_ATOM_UDEF_STEREO_COUNT>
1

> <PUBCHEM_BOND_DEF_STEREO_COUNT>
0

> <PUBCHEM_BOND_UDEF_STEREO_COUNT>
0

> <PUBCHEM_ISOTOPIC_ATOM_COUNT>
0

> <PUBCHEM_COMPONENT_COUNT>
1

> <PUBCHEM_CACTVS_TAUTO_COUNT>
2

> <PUBCHEM_CONFORMER_ID>
0008E49B00000001

> <PUBCHEM_MMFF94_ENERGY>
10.8117

> <PUBCHEM_FEATURE_SELFOVERLAP>
5.074

> <PUBCHEM_SHAPE_FINGERPRINT>
14390081 3 18260270741408531272
16714656 1 18123184611088882326
18185500 45 16969981463827708742
20096714 4 18338236084515694583
20645464 45 17969504814666344360
21040471 1 18411416211137533356
23235685 24 18411423916282741897
23552423 10 18129664080741180382
241688 4 16751841165711735178
29004967 10 17837483416681768779

> <PUBCHEM_SHAPE_MULTIPOLES>
157.64
3.1
1.78
0.65
1.37
0.5
-0.01
-1.59
-0.28
-0.46
-0.01
-0.03
-0.01
0.05

> <PUBCHEM_SHAPE_SELFOVERLAP>
298.18

> <PUBCHEM_SHAPE_VOLUME>
99.6

> <PUBCHEM_COORDINATE_TYPE>
2
5
10

$$$$

