13902
  -OEChem-06241222403D

 36 36  0     1  0  0  0  0  0999 V2000
    2.8299    0.6040   -0.1885 C   0  0  2  0  0  0  0  0  0  0  0  0
   -2.8154   -0.6011   -0.1899 C   0  0  2  0  0  0  0  0  0  0  0  0
    1.3444    0.2862   -0.1889 C   0  0  0  0  0  0  0  0  0  0  0  0
   -1.3569   -0.2900   -0.1897 C   0  0  0  0  0  0  0  0  0  0  0  0
    3.6818   -0.4803    0.5024 C   0  0  0  0  0  0  0  0  0  0  0  0
   -3.6942    0.4791    0.4988 C   0  0  0  0  0  0  0  0  0  0  0  0
    0.6903    0.1454   -1.3970 C   0  0  0  0  0  0  0  0  0  0  0  0
   -0.6739   -0.1454   -1.3975 C   0  0  0  0  0  0  0  0  0  0  0  0
    0.6888    0.1477    1.0189 C   0  0  0  0  0  0  0  0  0  0  0  0
   -0.6755   -0.1433    1.0186 C   0  0  0  0  0  0  0  0  0  0  0  0
    3.0860    1.9723    0.4550 C   0  0  0  0  0  0  0  0  0  0  0  0
   -3.0999   -1.9741    0.4554 C   0  0  0  0  0  0  0  0  0  0  0  0
    3.6126   -1.8319   -0.1983 C   0  0  0  0  0  0  0  0  0  0  0  0
   -3.6180    1.8315   -0.1993 C   0  0  0  0  0  0  0  0  0  0  0  0
    3.1757    0.6780   -1.2289 H   0  0  0  0  0  0  0  0  0  0  0  0
   -3.1628   -0.6766   -1.2299 H   0  0  0  0  0  0  0  0  0  0  0  0
    3.3898   -0.6057    1.5517 H   0  0  0  0  0  0  0  0  0  0  0  0
    4.7304   -0.1568    0.5102 H   0  0  0  0  0  0  0  0  0  0  0  0
   -3.4130    0.6010    1.5516 H   0  0  0  0  0  0  0  0  0  0  0  0
   -4.7403    0.1480    0.4898 H   0  0  0  0  0  0  0  0  0  0  0  0
    1.2110    0.2553   -2.3434 H   0  0  0  0  0  0  0  0  0  0  0  0
   -1.1897   -0.2560   -2.3477 H   0  0  0  0  0  0  0  0  0  0  0  0
    1.2019    0.2586    1.9691 H   0  0  0  0  0  0  0  0  0  0  0  0
   -1.1870   -0.2515    1.9709 H   0  0  0  0  0  0  0  0  0  0  0  0
    2.8435    1.9789    1.5231 H   0  0  0  0  0  0  0  0  0  0  0  0
    4.1408    2.2514    0.3550 H   0  0  0  0  0  0  0  0  0  0  0  0
    2.4883    2.7526   -0.0294 H   0  0  0  0  0  0  0  0  0  0  0  0
   -2.8628   -1.9805    1.5248 H   0  0  0  0  0  0  0  0  0  0  0  0
   -4.1576   -2.2378    0.3469 H   0  0  0  0  0  0  0  0  0  0  0  0
   -2.5078   -2.7610   -0.0252 H   0  0  0  0  0  0  0  0  0  0  0  0
    4.2955   -2.5390    0.2835 H   0  0  0  0  0  0  0  0  0  0  0  0
    2.6063   -2.2587   -0.1524 H   0  0  0  0  0  0  0  0  0  0  0  0
    3.9042   -1.7441   -1.2498 H   0  0  0  0  0  0  0  0  0  0  0  0
   -4.3094    2.5365    0.2734 H   0  0  0  0  0  0  0  0  0  0  0  0
   -2.6133    2.2603   -0.1382 H   0  0  0  0  0  0  0  0  0  0  0  0
   -3.8939    1.7442   -1.2550 H   0  0  0  0  0  0  0  0  0  0  0  0
  1  3  1  0  0  0  0
  1  5  1  0  0  0  0
  1 11  1  0  0  0  0
  1 15  1  0  0  0  0
  2  4  1  0  0  0  0
  2  6  1  0  0  0  0
  2 12  1  0  0  0  0
  2 16  1  0  0  0  0
  3  7  2  0  0  0  0
  3  9  1  0  0  0  0
  4  8  2  0  0  0  0
  4 10  1  0  0  0  0
  5 13  1  0  0  0  0
  5 17  1  0  0  0  0
  5 18  1  0  0  0  0
  6 14  1  0  0  0  0
  6 19  1  0  0  0  0
  6 20  1  0  0  0  0
  7  8  1  0  0  0  0
  7 21  1  0  0  0  0
  8 22  1  0  0  0  0
  9 10  2  0  0  0  0
  9 23  1  0  0  0  0
 10 24  1  0  0  0  0
 11 25  1  0  0  0  0
 11 26  1  0  0  0  0
 11 27  1  0  0  0  0
 12 28  1  0  0  0  0
 12 29  1  0  0  0  0
 12 30  1  0  0  0  0
 13 31  1  0  0  0  0
 13 32  1  0  0  0  0
 13 33  1  0  0  0  0
 14 34  1  0  0  0  0
 14 35  1  0  0  0  0
 14 36  1  0  0  0  0
M  END
> <PUBCHEM_COMPOUND_CID>
13902

> <PUBCHEM_CONFORMER_RMSD>
0.6

> <PUBCHEM_CONFORMER_DIVERSEORDER>
1
25
20
37
26
5
27
19
36
8
21
6
2
43
24
11
7
12
14
39
41
38
13
33
31
3
44
28
40
35
16
23
22
17
4
18
30
32
15
34
29
9
42
10

> <PUBCHEM_MMFF94_PARTIAL_CHARGES>
12
1 0.14
10 -0.15
2 0.14
21 0.15
22 0.15
23 0.15
24 0.15
3 -0.14
4 -0.14
7 -0.15
8 -0.15
9 -0.15

> <PUBCHEM_EFFECTIVE_ROTOR_COUNT>
4

> <PUBCHEM_PHARMACOPHORE_FEATURES>
5
1 11 hydrophobe
1 12 hydrophobe
1 13 hydrophobe
1 14 hydrophobe
6 3 4 7 8 9 10 rings

> <PUBCHEM_HEAVY_ATOM_COUNT>
14

> <PUBCHEM_ATOM_DEF_STEREO_COUNT>
0

> <PUBCHEM_ATOM_UDEF_STEREO_COUNT>
2

> <PUBCHEM_BOND_DEF_STEREO_COUNT>
0

> <PUBCHEM_BOND_UDEF_STEREO_COUNT>
0

> <PUBCHEM_ISOTOPIC_ATOM_COUNT>
0

> <PUBCHEM_COMPONENT_COUNT>
1

> <PUBCHEM_CACTVS_TAUTO_COUNT>
1

> <PUBCHEM_CONFORMER_ID>
0000364E00000001

> <PUBCHEM_MMFF94_ENERGY>
28.2747

> <PUBCHEM_FEATURE_SELFOVERLAP>
25.372

> <PUBCHEM_SHAPE_FINGERPRINT>
11132069 177 17346328071997751277
11401426 45 15068630426009292561
11769659 78 18412830153031792162
12032990 46 15697999643186068761
124424 183 17968100858238882113
12500047 106 18412266168254652327
12507560 40 18409729543073208985
12670546 56 18411990160739589617
12932764 1 17531531958005842856
13296908 3 18410855434405915290
13296909 8 18273217465656916917
13538477 17 17168432554270212526
13583140 156 18041571242876844483
13675066 3 18409731772145314090
13760787 19 18261388906168710822
14289901 80 18266459806392910147
15309172 13 16128658552566601553
15375462 6 18336828563487332132
16945 1 18266458887275183318
18186145 218 17989494025794455320
19026448 4 18410573963676614731
19026448 5 18410856529575018599
19422 9 18201998798352658935
20281475 54 17632858624795652138
20645476 183 17677334888162245108
20645477 56 18412822504259248057
20645477 70 17968094244042332022
21061003 4 14333119785146652845
22169311 14 18411418427261458854
23402539 116 18335709347514823645
23557571 272 18261660485904872181
23559900 14 18261675965088222466
3286 77 18343308037481940318
4072396 5 16516250776513103463
633830 44 16630522938219837391

> <PUBCHEM_SHAPE_MULTIPOLES>
288.11
7.33
1.75
1.12
0.06
0
-0.21
0
0.93
0.01
0.16
0
0
0.4

> <PUBCHEM_SHAPE_SELFOVERLAP>
574.575

> <PUBCHEM_SHAPE_VOLUME>
167.9

> <PUBCHEM_COORDINATE_TYPE>
2
5
10

$$$$

