4052
  -OEChem-06251223503D

 36 38  0     1  0  0  0  0  0999 V2000
   -2.5840    1.5402   -0.6438 S   0  0  0  0  0  0  0  0  0  0  0  0
    4.2357   -1.5521   -0.2280 S   0  0  0  0  0  0  0  0  0  0  0  0
   -2.1799    1.4583   -2.0347 O   0  0  0  0  0  0  0  0  0  0  0  0
   -3.5566    2.5239   -0.2081 O   0  0  0  0  0  0  0  0  0  0  0  0
   -0.0576   -1.8014   -0.2219 O   0  0  0  0  0  0  0  0  0  0  0  0
    1.4008    2.1379    0.3429 O   0  0  0  0  0  0  0  0  0  0  0  0
   -1.1880    1.6372    0.3680 N   0  0  2  0  0  0  0  0  0  0  0  0
    1.9836   -0.1640    0.0470 N   0  0  0  0  0  0  0  0  0  0  0  0
    4.0408    0.9947    0.1703 N   0  0  0  0  0  0  0  0  0  0  0  0
   -3.1917   -0.0517   -0.2174 C   0  0  0  0  0  0  0  0  0  0  0  0
   -2.2774   -1.0773    0.0263 C   0  0  0  0  0  0  0  0  0  0  0  0
   -0.3044    0.5280    0.1571 C   0  0  0  0  0  0  0  0  0  0  0  0
   -0.8141   -0.8538   -0.0389 C   0  0  0  0  0  0  0  0  0  0  0  0
   -4.5662   -0.2686   -0.1393 C   0  0  0  0  0  0  0  0  0  0  0  0
   -1.4344    1.9794    1.8011 C   0  0  0  0  0  0  0  0  0  0  0  0
   -2.7583   -2.3544    0.3324 C   0  0  0  0  0  0  0  0  0  0  0  0
    1.0012    0.8149    0.1923 C   0  0  0  0  0  0  0  0  0  0  0  0
   -5.0348   -1.5422    0.1766 C   0  0  0  0  0  0  0  0  0  0  0  0
   -4.1344   -2.5828    0.4092 C   0  0  0  0  0  0  0  0  0  0  0  0
    3.3512   -0.1080    0.0192 C   0  0  0  0  0  0  0  0  0  0  0  0
    5.6859   -0.6420   -0.1290 C   0  0  0  0  0  0  0  0  0  0  0  0
    5.3845    0.6867    0.0853 C   0  0  0  0  0  0  0  0  0  0  0  0
    6.9981   -1.3027   -0.2666 C   0  0  0  0  0  0  0  0  0  0  0  0
   -5.2791    0.5273   -0.3309 H   0  0  0  0  0  0  0  0  0  0  0  0
   -1.9164    2.9591    1.8677 H   0  0  0  0  0  0  0  0  0  0  0  0
   -0.4937    2.0429    2.3569 H   0  0  0  0  0  0  0  0  0  0  0  0
   -2.0678    1.2265    2.2797 H   0  0  0  0  0  0  0  0  0  0  0  0
   -2.0796   -3.1809    0.5258 H   0  0  0  0  0  0  0  0  0  0  0  0
   -6.1034   -1.7274    0.2374 H   0  0  0  0  0  0  0  0  0  0  0  0
   -4.5051   -3.5745    0.6526 H   0  0  0  0  0  0  0  0  0  0  0  0
    1.6025   -1.0984   -0.0698 H   0  0  0  0  0  0  0  0  0  0  0  0
    0.6116    2.7052    0.3282 H   0  0  0  0  0  0  0  0  0  0  0  0
    6.1116    1.4813    0.1881 H   0  0  0  0  0  0  0  0  0  0  0  0
    7.1408   -2.0576    0.5136 H   0  0  0  0  0  0  0  0  0  0  0  0
    7.0909   -1.7909   -1.2425 H   0  0  0  0  0  0  0  0  0  0  0  0
    7.8144   -0.5776   -0.1797 H   0  0  0  0  0  0  0  0  0  0  0  0
  1  3  2  0  0  0  0
  1  4  2  0  0  0  0
  1  7  1  0  0  0  0
  1 10  1  0  0  0  0
  2 20  1  0  0  0  0
  2 21  1  0  0  0  0
  5 13  2  0  0  0  0
  6 17  1  0  0  0  0
  6 32  1  0  0  0  0
  7 12  1  0  0  0  0
  7 15  1  0  0  0  0
  8 17  1  0  0  0  0
  8 20  1  0  0  0  0
  8 31  1  0  0  0  0
  9 20  2  0  0  0  0
  9 22  1  0  0  0  0
 10 11  1  0  0  0  0
 10 14  2  0  0  0  0
 11 13  1  0  0  0  0
 11 16  2  0  0  0  0
 12 13  1  0  0  0  0
 12 17  2  0  0  0  0
 14 18  1  0  0  0  0
 14 24  1  0  0  0  0
 15 25  1  0  0  0  0
 15 26  1  0  0  0  0
 15 27  1  0  0  0  0
 16 19  1  0  0  0  0
 16 28  1  0  0  0  0
 18 19  2  0  0  0  0
 18 29  1  0  0  0  0
 19 30  1  0  0  0  0
 21 22  2  0  0  0  0
 21 23  1  0  0  0  0
 22 33  1  0  0  0  0
 23 34  1  0  0  0  0
 23 35  1  0  0  0  0
 23 36  1  0  0  0  0
M  END
> <PUBCHEM_COMPOUND_CID>
4052

> <PUBCHEM_CONFORMER_RMSD>
0.6

> <PUBCHEM_CONFORMER_DIVERSEORDER>
1
12
13
6
15
5
4
11
9
10
7
8
3
16
14
2

> <PUBCHEM_MMFF94_PARTIAL_CHARGES>
30
1 1.45
10 -0.01
11 0.09
12 0.21
13 0.47
14 -0.15
15 0.36
16 -0.15
17 0.18
18 -0.15
19 -0.15
2 -0.08
20 0.46
21 -0.14
22 0.08
23 0.18
24 0.15
28 0.15
29 0.15
3 -0.65
30 0.15
31 0.4
32 0.45
33 0.15
4 -0.65
5 -0.57
6 -0.53
7 -0.68
8 -0.58
9 -0.57

> <PUBCHEM_EFFECTIVE_ROTOR_COUNT>
2.2

> <PUBCHEM_PHARMACOPHORE_FEATURES>
9
1 3 acceptor
1 4 acceptor
1 5 acceptor
1 6 donor
1 8 donor
3 8 9 20 cation
5 2 9 20 21 22 rings
6 1 7 10 11 12 13 rings
6 10 11 14 16 18 19 rings

> <PUBCHEM_HEAVY_ATOM_COUNT>
23

> <PUBCHEM_ATOM_DEF_STEREO_COUNT>
0

> <PUBCHEM_ATOM_UDEF_STEREO_COUNT>
0

> <PUBCHEM_BOND_DEF_STEREO_COUNT>
0

> <PUBCHEM_BOND_UDEF_STEREO_COUNT>
1

> <PUBCHEM_ISOTOPIC_ATOM_COUNT>
0

> <PUBCHEM_COMPONENT_COUNT>
1

> <PUBCHEM_CACTVS_TAUTO_COUNT>
8

> <PUBCHEM_CONFORMER_ID>
00000FD400000001

> <PUBCHEM_MMFF94_ENERGY>
58.9767

> <PUBCHEM_FEATURE_SELFOVERLAP>
45.737

> <PUBCHEM_SHAPE_FINGERPRINT>
10165383 225 18197782309586029557
10411042 1 18196088838319693427
11315181 36 18409727379211512728
11524674 6 17022900133807796879
11578080 2 16843905267619119031
12011746 2 18340217319397808919
12107183 9 17695357253867937202
12166972 35 18201715142318747204
12236239 1 18060418032593574238
12293681 160 17608384746024358129
12760667 363 18334575720308057655
12916754 54 18342173337055538292
13288520 33 18409728460868011983
13402501 40 18408882914936221590
13862211 1 18261111833433609039
14251740 79 18343018887166745587
14341114 176 18410289182065689998
15196674 1 18410011044357696114
16945 1 18412259515914637845
17804303 29 18410855417605782743
17844677 252 18411411800744352924
1813 80 17345766165705526437
18927931 339 18410851053819329287
19489759 90 17989207053449743702
200 152 18186522089870353232
21033648 29 17676504846993094210
21033650 10 17273687861920788196
21236236 1 18408884057613137577
21267235 1 18410004430076710594
21279426 13 18265613362833820158
22182313 1 18193580907250291352
2297311 6 18411975845323675551
23175994 123 17749388144104031281
23198884 109 16128655262917148918
23402539 116 18186806884814592349
23557571 272 18335696156994978782
23559900 14 18337961077696857184
3004659 81 18272933813406074010
329604 57 18410007711536966420
335352 9 18411139135035444205
350125 39 18411415072992662645
4214541 1 18411982485733212892
497634 4 18342172271877256076
5104073 3 18260833726565223338
531348 171 17487627553019332294
559249 180 18341898553927849778
9709674 26 18269834216617051002

> <PUBCHEM_SHAPE_MULTIPOLES>
442.61
13.2
2.64
0.95
20.06
0.03
-0.05
-6.01
-0.78
-2.62
0.28
-0.62
0.51
0.79

> <PUBCHEM_SHAPE_SELFOVERLAP>
936.253

> <PUBCHEM_SHAPE_VOLUME>
248.8

> <PUBCHEM_COORDINATE_TYPE>
2
5
10

$$$$

