11880
  -OEChem-06261206143D

 19 19  0     0  0  0  0  0  0999 V2000
    2.8961    1.1529    1.2089 O   0  0  0  0  0  0  0  0  0  0  0  0
    3.0718    1.1673   -1.0572 O   0  0  0  0  0  0  0  0  0  0  0  0
    0.9149   -2.8459    0.0060 O   0  5  0  0  0  0  0  0  0  0  0  0
    2.6162   -1.4589   -0.0202 O   0  0  0  0  0  0  0  0  0  0  0  0
   -3.9808    0.9551    0.0006 O   0  5  0  0  0  0  0  0  0  0  0  0
   -3.5907   -1.2051    0.0208 O   0  0  0  0  0  0  0  0  0  0  0  0
    1.3831   -1.6833   -0.0088 N   0  3  0  0  0  0  0  0  0  0  0  0
   -3.1874   -0.0170    0.0057 N   0  3  0  0  0  0  0  0  0  0  0  0
    0.4840   -0.5805   -0.0134 C   0  0  0  0  0  0  0  0  0  0  0  0
    0.9549    0.7324   -0.0308 C   0  0  0  0  0  0  0  0  0  0  0  0
   -1.7900    0.2353   -0.0065 C   0  0  0  0  0  0  0  0  0  0  0  0
   -0.8884   -0.8290   -0.0012 C   0  0  0  0  0  0  0  0  0  0  0  0
    0.0534    1.7967   -0.0359 C   0  0  0  0  0  0  0  0  0  0  0  0
   -1.3191    1.5482   -0.0238 C   0  0  0  0  0  0  0  0  0  0  0  0
    2.3818    1.0318   -0.0441 C   0  0  0  0  0  0  0  0  0  0  0  0
   -1.2598   -1.8510    0.0123 H   0  0  0  0  0  0  0  0  0  0  0  0
    0.4082    2.8242   -0.0495 H   0  0  0  0  0  0  0  0  0  0  0  0
   -1.9919    2.4019   -0.0284 H   0  0  0  0  0  0  0  0  0  0  0  0
    3.8561    1.3542    1.1918 H   0  0  0  0  0  0  0  0  0  0  0  0
  1 15  1  0  0  0  0
  1 19  1  0  0  0  0
  2 15  2  0  0  0  0
  3  7  1  0  0  0  0
  4  7  2  0  0  0  0
  5  8  1  0  0  0  0
  6  8  2  0  0  0  0
  7  9  1  0  0  0  0
  8 11  1  0  0  0  0
  9 10  2  0  0  0  0
  9 12  1  0  0  0  0
 10 13  1  0  0  0  0
 10 15  1  0  0  0  0
 11 12  2  0  0  0  0
 11 14  1  0  0  0  0
 12 16  1  0  0  0  0
 13 14  2  0  0  0  0
 13 17  1  0  0  0  0
 14 18  1  0  0  0  0
M  CHG  4   3  -1   5  -1   7   1   8   1
M  END
> <PUBCHEM_COMPOUND_CID>
11880

> <PUBCHEM_CONFORMER_RMSD>
0.6

> <PUBCHEM_CONFORMER_DIVERSEORDER>
1

> <PUBCHEM_MMFF94_PARTIAL_CHARGES>
19
1 -0.65
10 0.09
11 0.13
12 -0.15
13 -0.15
14 -0.15
15 0.63
16 0.15
17 0.15
18 0.15
19 0.5
2 -0.57
3 -0.52
4 -0.52
5 -0.52
6 -0.52
7 0.91
8 0.91
9 0.13

> <PUBCHEM_EFFECTIVE_ROTOR_COUNT>
3

> <PUBCHEM_PHARMACOPHORE_FEATURES>
10
1 1 acceptor
1 2 acceptor
1 3 acceptor
1 3 anion
1 4 acceptor
1 5 acceptor
1 5 anion
1 6 acceptor
3 1 2 15 anion
6 9 10 11 12 13 14 rings

> <PUBCHEM_HEAVY_ATOM_COUNT>
15

> <PUBCHEM_ATOM_DEF_STEREO_COUNT>
0

> <PUBCHEM_ATOM_UDEF_STEREO_COUNT>
0

> <PUBCHEM_BOND_DEF_STEREO_COUNT>
0

> <PUBCHEM_BOND_UDEF_STEREO_COUNT>
0

> <PUBCHEM_ISOTOPIC_ATOM_COUNT>
0

> <PUBCHEM_COMPONENT_COUNT>
1

> <PUBCHEM_CACTVS_TAUTO_COUNT>
1

> <PUBCHEM_CONFORMER_ID>
00002E6800000001

> <PUBCHEM_MMFF94_ENERGY>
57.5872

> <PUBCHEM_FEATURE_SELFOVERLAP>
50.97

> <PUBCHEM_SHAPE_FINGERPRINT>
10967382 1 18410855417357953839
10980938 120 18410575089237712011
11132069 177 18412833460251282929
11471102 20 18411422834293712477
12932764 1 17749395845164956989
13380535 21 18411128156650687825
13380535 76 18342459196935252499
14251717 144 18410580561084251439
14325111 11 18410855443249167861
14576447 43 18044109968798657239
14787075 74 17244998025459551161
15219456 202 18270408303336404725
15536298 74 18333732446180831926
15775835 57 18260267417261768300
161256 15 18338799043074926796
16945 1 18338518538755732093
18186145 218 17894903001791923417
19021347 11 18411698764082483031
193761 8 18050567640268022525
20588541 1 18342735174527670065
20645476 183 17772740577308946956
20645477 70 18336549417074044719
21501502 16 18266171919162252385
21650355 55 17046569600081805618
2334 1 18410855494746505941
23402539 116 18262243214251374076
23402655 69 18336560395379829053
23463225 33 18343025497126480520
23552423 10 18270114759153127173
2748010 2 18339928241522005597
3312278 4 18408879616822883281
449060 62 18408879659440201261
528886 8 18338801113138367728
53812653 166 18261116222858329296
581208 293 18410578366023517277
7364860 26 18189336930069422638

> <PUBCHEM_SHAPE_MULTIPOLES>
263.52
5.29
2.23
0.71
3.27
1.15
0.03
-0.64
0.01
-0.87
-0.01
-0.43
-0.18
0.02

> <PUBCHEM_SHAPE_SELFOVERLAP>
564.96

> <PUBCHEM_SHAPE_VOLUME>
145.7

> <PUBCHEM_COORDINATE_TYPE>
2
5
10

$$$$

