11366
  -OEChem-06261205352D

 49 51  0     0  0  0  0  0  0999 V2000
    4.5981    1.3450    0.0000 O   0  0  0  0  0  0  0  0  0  0  0  0
    2.8660   -3.6550    0.0000 O   0  0  0  0  0  0  0  0  0  0  0  0
    9.7942    2.3450    0.0000 O   0  0  0  0  0  0  0  0  0  0  0  0
    4.5981   -4.6550    0.0000 O   0  0  0  0  0  0  0  0  0  0  0  0
    9.7942    4.3450    0.0000 O   0  0  0  0  0  0  0  0  0  0  0  0
    7.1962   -0.1550    0.0000 C   0  0  0  0  0  0  0  0  0  0  0  0
    7.1962    0.8450    0.0000 C   0  0  0  0  0  0  0  0  0  0  0  0
    6.3301   -0.6550    0.0000 C   0  0  0  0  0  0  0  0  0  0  0  0
    5.4641   -0.1550    0.0000 C   0  0  0  0  0  0  0  0  0  0  0  0
    6.3301    1.3450    0.0000 C   0  0  0  0  0  0  0  0  0  0  0  0
    5.4641    0.8450    0.0000 C   0  0  0  0  0  0  0  0  0  0  0  0
    6.3301    2.3450    0.0000 C   0  0  0  0  0  0  0  0  0  0  0  0
    4.5981   -0.6550    0.0000 C   0  0  0  0  0  0  0  0  0  0  0  0
    4.5981   -1.6550    0.0000 C   0  0  0  0  0  0  0  0  0  0  0  0
    7.1962    2.8450    0.0000 C   0  0  0  0  0  0  0  0  0  0  0  0
    3.7320   -2.1550    0.0000 C   0  0  0  0  0  0  0  0  0  0  0  0
    8.0622    2.3450    0.0000 C   0  0  0  0  0  0  0  0  0  0  0  0
    5.4641   -2.1550    0.0000 C   0  0  0  0  0  0  0  0  0  0  0  0
    7.1962    3.8450    0.0000 C   0  0  0  0  0  0  0  0  0  0  0  0
    8.9282    2.8450    0.0000 C   0  0  0  0  0  0  0  0  0  0  0  0
    3.7320   -3.1550    0.0000 C   0  0  0  0  0  0  0  0  0  0  0  0
    8.0622    4.3450    0.0000 C   0  0  0  0  0  0  0  0  0  0  0  0
    5.4641   -3.1550    0.0000 C   0  0  0  0  0  0  0  0  0  0  0  0
    8.9282    3.8450    0.0000 C   0  0  0  0  0  0  0  0  0  0  0  0
    4.5981   -3.6550    0.0000 C   0  0  0  0  0  0  0  0  0  0  0  0
    2.0000   -3.1550    0.0000 C   0  0  0  0  0  0  0  0  0  0  0  0
   10.6603    2.8450    0.0000 C   0  0  0  0  0  0  0  0  0  0  0  0
    7.4082   -0.7376    0.0000 H   0  0  0  0  0  0  0  0  0  0  0  0
    7.8067   -0.0473    0.0000 H   0  0  0  0  0  0  0  0  0  0  0  0
    7.8067    0.7373    0.0000 H   0  0  0  0  0  0  0  0  0  0  0  0
    7.4082    1.4276    0.0000 H   0  0  0  0  0  0  0  0  0  0  0  0
    5.9316   -1.1300    0.0000 H   0  0  0  0  0  0  0  0  0  0  0  0
    6.7287   -1.1300    0.0000 H   0  0  0  0  0  0  0  0  0  0  0  0
    5.7932    2.6550    0.0000 H   0  0  0  0  0  0  0  0  0  0  0  0
    4.0611   -0.3450    0.0000 H   0  0  0  0  0  0  0  0  0  0  0  0
    8.0622    1.7250    0.0000 H   0  0  0  0  0  0  0  0  0  0  0  0
    3.1951   -1.8450    0.0000 H   0  0  0  0  0  0  0  0  0  0  0  0
    6.0010   -1.8450    0.0000 H   0  0  0  0  0  0  0  0  0  0  0  0
    6.6592    4.1550    0.0000 H   0  0  0  0  0  0  0  0  0  0  0  0
    8.0622    4.9650    0.0000 H   0  0  0  0  0  0  0  0  0  0  0  0
    6.0010   -3.4650    0.0000 H   0  0  0  0  0  0  0  0  0  0  0  0
    5.1350   -4.9650    0.0000 H   0  0  0  0  0  0  0  0  0  0  0  0
    9.7942    4.9650    0.0000 H   0  0  0  0  0  0  0  0  0  0  0  0
   10.9703    2.3081    0.0000 H   0  0  0  0  0  0  0  0  0  0  0  0
   11.1972    3.1550    0.0000 H   0  0  0  0  0  0  0  0  0  0  0  0
    2.3100   -2.6181    0.0000 H   0  0  0  0  0  0  0  0  0  0  0  0
   10.3503    3.3819    0.0000 H   0  0  0  0  0  0  0  0  0  0  0  0
    1.4631   -2.8450    0.0000 H   0  0  0  0  0  0  0  0  0  0  0  0
    1.6900   -3.6919    0.0000 H   0  0  0  0  0  0  0  0  0  0  0  0
  1 11  2  0  0  0  0
  2 21  1  0  0  0  0
  2 26  1  0  0  0  0
  3 20  1  0  0  0  0
  3 27  1  0  0  0  0
  4 25  1  0  0  0  0
  4 42  1  0  0  0  0
  5 24  1  0  0  0  0
  5 43  1  0  0  0  0
  6  7  1  0  0  0  0
  6  8  1  0  0  0  0
  6 28  1  0  0  0  0
  6 29  1  0  0  0  0
  7 10  1  0  0  0  0
  7 30  1  0  0  0  0
  7 31  1  0  0  0  0
  8  9  1  0  0  0  0
  8 32  1  0  0  0  0
  8 33  1  0  0  0  0
  9 11  1  0  0  0  0
  9 13  2  3  0  0  0
 10 11  1  0  0  0  0
 10 12  2  3  0  0  0
 12 15  1  0  0  0  0
 12 34  1  0  0  0  0
 13 14  1  0  0  0  0
 13 35  1  0  0  0  0
 14 16  2  0  0  0  0
 14 18  1  0  0  0  0
 15 17  2  0  0  0  0
 15 19  1  0  0  0  0
 16 21  1  0  0  0  0
 16 37  1  0  0  0  0
 17 20  1  0  0  0  0
 17 36  1  0  0  0  0
 18 23  2  0  0  0  0
 18 38  1  0  0  0  0
 19 22  2  0  0  0  0
 19 39  1  0  0  0  0
 20 24  2  0  0  0  0
 21 25  2  0  0  0  0
 22 24  1  0  0  0  0
 22 40  1  0  0  0  0
 23 25  1  0  0  0  0
 23 41  1  0  0  0  0
 26 46  1  0  0  0  0
 26 48  1  0  0  0  0
 26 49  1  0  0  0  0
 27 44  1  0  0  0  0
 27 45  1  0  0  0  0
 27 47  1  0  0  0  0
M  END
> <PUBCHEM_COMPOUND_CID>
11366

> <PUBCHEM_COMPOUND_CANONICALIZED>
1

> <PUBCHEM_CACTVS_COMPLEXITY>
533

> <PUBCHEM_CACTVS_HBOND_ACCEPTOR>
5

> <PUBCHEM_CACTVS_HBOND_DONOR>
2

> <PUBCHEM_CACTVS_ROTATABLE_BOND>
4

> <PUBCHEM_CACTVS_SUBSKEYS>
AAADceB4OAAAAAAAAAAAAAAAAAAAAAAAAAAwYMAAAAAAAAABQAAAGgAACAAADASAmAIyBoAABgCIAqBSAAACCAAgIAAIiAEGiMgNJjKGMRqAcCMkwBELuYeIyBAOIAABAAAAQABAAAIAAACAAAAAAAAAAA==

> <PUBCHEM_IUPAC_OPENEYE_NAME>
2,6-bis[(4-hydroxy-3-methoxy-phenyl)methylene]cyclohexanone

> <PUBCHEM_IUPAC_CAS_NAME>
2,6-bis[(4-hydroxy-3-methoxyphenyl)methylidene]-1-cyclohexanone

> <PUBCHEM_IUPAC_NAME>
2,6-bis[(4-hydroxy-3-methoxyphenyl)methylidene]cyclohexan-1-one

> <PUBCHEM_IUPAC_SYSTEMATIC_NAME>
2,6-bis[(3-methoxy-4-oxidanyl-phenyl)methylidene]cyclohexan-1-one

> <PUBCHEM_IUPAC_TRADITIONAL_NAME>
2,6-divanillylidenecyclohexanone

> <PUBCHEM_IUPAC_INCHI>
InChI=1S/C22H22O5/c1-26-20-12-14(6-8-18(20)23)10-16-4-3-5-17(22(16)25)11-15-7-9-19(24)21(13-15)27-2/h6-13,23-24H,3-5H2,1-2H3

> <PUBCHEM_IUPAC_INCHIKEY>
DHKKONBXGAAFTB-UHFFFAOYSA-N

> <PUBCHEM_XLOGP3_AA>
4.3

> <PUBCHEM_EXACT_MASS>
366.146724

> <PUBCHEM_MOLECULAR_FORMULA>
C22H22O5

> <PUBCHEM_MOLECULAR_WEIGHT>
366.40708

> <PUBCHEM_OPENEYE_CAN_SMILES>
COC1=C(C=CC(=C1)C=C2CCCC(=CC3=CC(=C(C=C3)O)OC)C2=O)O

> <PUBCHEM_OPENEYE_ISO_SMILES>
COC1=C(C=CC(=C1)C=C2CCCC(=CC3=CC(=C(C=C3)O)OC)C2=O)O

> <PUBCHEM_CACTVS_TPSA>
76

> <PUBCHEM_MONOISOTOPIC_WEIGHT>
366.146724

> <PUBCHEM_TOTAL_CHARGE>
0

> <PUBCHEM_HEAVY_ATOM_COUNT>
27

> <PUBCHEM_ATOM_DEF_STEREO_COUNT>
0

> <PUBCHEM_ATOM_UDEF_STEREO_COUNT>
0

> <PUBCHEM_BOND_DEF_STEREO_COUNT>
0

> <PUBCHEM_BOND_UDEF_STEREO_COUNT>
2

> <PUBCHEM_ISOTOPIC_ATOM_COUNT>
0

> <PUBCHEM_COMPONENT_COUNT>
1

> <PUBCHEM_CACTVS_TAUTO_COUNT>
20

> <PUBCHEM_COORDINATE_TYPE>
1
5
255

> <PUBCHEM_BONDANNOTATIONS>
10  12  1
14  16  8
14  18  8
15  17  8
15  19  8
16  21  8
17  20  8
18  23  8
19  22  8
20  24  8
21  25  8
22  24  8
23  25  8
9  13  1

$$$$

