17395323
  -OEChem-06241222493D

 48 49  0     0  0  0  0  0  0999 V2000
    5.2046    0.7039    1.0448 O   0  0  0  0  0  0  0  0  0  0  0  0
   -3.8392   -1.5286   -2.0666 O   0  0  0  0  0  0  0  0  0  0  0  0
   -2.1602    1.5203    1.6553 O   0  0  0  0  0  0  0  0  0  0  0  0
    5.7735   -1.0621   -0.3487 N   0  0  0  0  0  0  0  0  0  0  0  0
    4.4111    0.6137   -1.1354 N   0  0  0  0  0  0  0  0  0  0  0  0
   -2.5427    0.1509   -0.2112 N   0  0  0  0  0  0  0  0  0  0  0  0
    6.5934   -1.7744    0.6029 C   0  0  0  0  0  0  0  0  0  0  0  0
    2.2357    1.6144   -0.6550 C   0  0  0  0  0  0  0  0  0  0  0  0
    3.6504    1.8415   -1.1038 C   0  0  0  0  0  0  0  0  0  0  0  0
   -0.3919    1.1905    0.1803 C   0  0  0  0  0  0  0  0  0  0  0  0
    1.2433    1.3294   -1.5928 C   0  0  0  0  0  0  0  0  0  0  0  0
    1.9145    1.6874    0.7004 C   0  0  0  0  0  0  0  0  0  0  0  0
    7.7141   -2.5156   -0.1144 C   0  0  0  0  0  0  0  0  0  0  0  0
    5.7432   -2.7284    1.4326 C   0  0  0  0  0  0  0  0  0  0  0  0
    5.1358    0.1383   -0.0457 C   0  0  0  0  0  0  0  0  0  0  0  0
   -0.0706    1.1174   -1.1751 C   0  0  0  0  0  0  0  0  0  0  0  0
    0.6007    1.4755    1.1180 C   0  0  0  0  0  0  0  0  0  0  0  0
   -3.9017   -0.2182   -0.0573 C   0  0  0  0  0  0  0  0  0  0  0  0
   -1.7618    0.9699    0.6162 C   0  0  0  0  0  0  0  0  0  0  0  0
   -4.5227   -1.0506   -0.9885 C   0  0  0  0  0  0  0  0  0  0  0  0
   -6.5794   -0.9275    0.2732 C   0  0  0  0  0  0  0  0  0  0  0  0
   -4.6195    0.2596    1.0393 C   0  0  0  0  0  0  0  0  0  0  0  0
   -5.8615   -1.4054   -0.8231 C   0  0  0  0  0  0  0  0  0  0  0  0
   -5.9583   -0.0951    1.2044 C   0  0  0  0  0  0  0  0  0  0  0  0
   -8.0108   -1.3067    0.4502 C   0  0  0  0  0  0  0  0  0  0  0  0
    7.0449   -1.0401    1.2808 H   0  0  0  0  0  0  0  0  0  0  0  0
    3.6700    2.2669   -2.1136 H   0  0  0  0  0  0  0  0  0  0  0  0
    4.1486    2.5627   -0.4453 H   0  0  0  0  0  0  0  0  0  0  0  0
    5.5945   -1.4892   -1.2526 H   0  0  0  0  0  0  0  0  0  0  0  0
    4.3983    0.0628   -1.9882 H   0  0  0  0  0  0  0  0  0  0  0  0
    1.4806    1.2762   -2.6521 H   0  0  0  0  0  0  0  0  0  0  0  0
    2.6768    1.9104    1.4418 H   0  0  0  0  0  0  0  0  0  0  0  0
    8.3637   -3.0307    0.6007 H   0  0  0  0  0  0  0  0  0  0  0  0
    8.3315   -1.8196   -0.6928 H   0  0  0  0  0  0  0  0  0  0  0  0
    7.3162   -3.2609   -0.8123 H   0  0  0  0  0  0  0  0  0  0  0  0
    6.3553   -3.2578    2.1702 H   0  0  0  0  0  0  0  0  0  0  0  0
    4.9587   -2.1863    1.9719 H   0  0  0  0  0  0  0  0  0  0  0  0
    5.2506   -3.4742    0.7986 H   0  0  0  0  0  0  0  0  0  0  0  0
   -0.8145    0.9362   -1.9451 H   0  0  0  0  0  0  0  0  0  0  0  0
    0.3726    1.5325    2.1793 H   0  0  0  0  0  0  0  0  0  0  0  0
   -2.1017   -0.2823   -1.0180 H   0  0  0  0  0  0  0  0  0  0  0  0
   -4.2148    0.9068    1.8033 H   0  0  0  0  0  0  0  0  0  0  0  0
   -6.3484   -2.0528   -1.5486 H   0  0  0  0  0  0  0  0  0  0  0  0
   -6.5085    0.2845    2.0615 H   0  0  0  0  0  0  0  0  0  0  0  0
   -8.2935   -1.3063    1.5084 H   0  0  0  0  0  0  0  0  0  0  0  0
   -8.2011   -2.3156    0.0686 H   0  0  0  0  0  0  0  0  0  0  0  0
   -8.6550   -0.6013   -0.0840 H   0  0  0  0  0  0  0  0  0  0  0  0
   -4.4325   -2.0867   -2.5980 H   0  0  0  0  0  0  0  0  0  0  0  0
  1 15  2  0  0  0  0
  2 20  1  0  0  0  0
  2 48  1  0  0  0  0
  3 19  2  0  0  0  0
  4  7  1  0  0  0  0
  4 15  1  0  0  0  0
  4 29  1  0  0  0  0
  5  9  1  0  0  0  0
  5 15  1  0  0  0  0
  5 30  1  0  0  0  0
  6 18  1  0  0  0  0
  6 19  1  0  0  0  0
  6 41  1  0  0  0  0
  7 13  1  0  0  0  0
  7 14  1  0  0  0  0
  7 26  1  0  0  0  0
  8  9  1  0  0  0  0
  8 11  2  0  0  0  0
  8 12  1  0  0  0  0
  9 27  1  0  0  0  0
  9 28  1  0  0  0  0
 10 16  2  0  0  0  0
 10 17  1  0  0  0  0
 10 19  1  0  0  0  0
 11 16  1  0  0  0  0
 11 31  1  0  0  0  0
 12 17  2  0  0  0  0
 12 32  1  0  0  0  0
 13 33  1  0  0  0  0
 13 34  1  0  0  0  0
 13 35  1  0  0  0  0
 14 36  1  0  0  0  0
 14 37  1  0  0  0  0
 14 38  1  0  0  0  0
 16 39  1  0  0  0  0
 17 40  1  0  0  0  0
 18 20  2  0  0  0  0
 18 22  1  0  0  0  0
 20 23  1  0  0  0  0
 21 23  2  0  0  0  0
 21 24  1  0  0  0  0
 21 25  1  0  0  0  0
 22 24  2  0  0  0  0
 22 42  1  0  0  0  0
 23 43  1  0  0  0  0
 24 44  1  0  0  0  0
 25 45  1  0  0  0  0
 25 46  1  0  0  0  0
 25 47  1  0  0  0  0
M  END
> <PUBCHEM_COMPOUND_CID>
17395323

> <PUBCHEM_CONFORMER_RMSD>
0.8

> <PUBCHEM_CONFORMER_DIVERSEORDER>
1
67
83
63
125
51
56
52
108
92
136
135
70
110
91
86
140
59
103
107
95
69
117
126
90
94
99
142
50
60
84
132
54
138
129
133
118
7
47
112
31
32
106
88
113
65
131
85
61
17
39
134
53
3
46
121
37
64
101
98
58
89
36
43
102
100
111
44
75
4
116
42
120
73
40
119
79
139
48
57
41
49
96
25
82
137
18
8
34
6
130
38
124
128
97
12
35
87
15
26
33
123
127
16
45
71
29
76
109
55
104
72
93
122
80
114
27
141
5
19
115
66
74
68
11
21
30
105
62
77
23
10
22
9
28
78
13
24
2
14
81
20

> <PUBCHEM_MMFF94_PARTIAL_CHARGES>
34
1 -0.57
10 0.09
11 -0.15
12 -0.15
15 0.69
16 -0.15
17 -0.15
18 0.12
19 0.54
2 -0.53
20 0.08
21 -0.14
22 -0.15
23 -0.15
24 -0.15
25 0.14
29 0.37
3 -0.57
30 0.37
31 0.15
32 0.15
39 0.15
4 -0.73
40 0.15
41 0.37
42 0.15
43 0.15
44 0.15
48 0.45
5 -0.73
6 -0.55
7 0.3
8 -0.14
9 0.44

> <PUBCHEM_EFFECTIVE_ROTOR_COUNT>
8

> <PUBCHEM_PHARMACOPHORE_FEATURES>
9
1 1 acceptor
1 2 donor
1 3 acceptor
1 4 donor
1 5 donor
1 6 donor
3 7 13 14 hydrophobe
6 18 20 21 22 23 24 rings
6 8 10 11 12 16 17 rings

> <PUBCHEM_HEAVY_ATOM_COUNT>
25

> <PUBCHEM_ATOM_DEF_STEREO_COUNT>
0

> <PUBCHEM_ATOM_UDEF_STEREO_COUNT>
0

> <PUBCHEM_BOND_DEF_STEREO_COUNT>
0

> <PUBCHEM_BOND_UDEF_STEREO_COUNT>
0

> <PUBCHEM_ISOTOPIC_ATOM_COUNT>
0

> <PUBCHEM_COMPONENT_COUNT>
1

> <PUBCHEM_CACTVS_TAUTO_COUNT>
54

> <PUBCHEM_CONFORMER_ID>
01096E7B00000001

> <PUBCHEM_MMFF94_ENERGY>
61.2349

> <PUBCHEM_FEATURE_SELFOVERLAP>
45.724

> <PUBCHEM_SHAPE_FINGERPRINT>
10 15 15791734083681314512
10670039 82 13398642661781446974
10693767 8 17918279757491939706
10753850 27 18343304781996761944
12236239 1 18338791231083641017
12838862 33 16588302818286991157
13533116 47 18410855430775989200
13668630 136 17846779581473419355
14251752 14 18410572882242077309
14347332 77 18341894129499878020
14565420 104 5617540679288844052
15119646 104 18413384349836258202
15183329 4 13973966519309487646
15188451 53 18187648024569606700
15320294 125 18186805777109163423
15326921 28 17170938526312945737
15475509 35 18333739026777702722
15510800 12 18340470249605957122
155225 6 6193688131325209770
17134984 74 17561084713991353330
1768 124 18334856152008915094
17857418 61 18260546710189377332
20028762 73 18334576880461385614
2026 5 18202005464137466067
21304304 249 18410851079794932846
21307412 95 17131538518746369290
21344244 181 17561079189840289722
21365058 113 16917062235708323749
21585483 132 18268165196247369899
21637258 2 18411985780168509160
21641784 216 13973696043401358911
22002106 203 18058177297107235826
22061861 79 17489588948023128228
221357 26 15841280251009122597
22224240 67 13840264797370837509
23522609 53 18046593825068455145
23569943 247 18130227172128304419
3014063 24 18342176691709579650
33532 11 18342174436841433755
3472631 163 9655568626532601528
34797466 226 16056596504394536236
397830 11 5833701426645723485
406291 66 18340771554710398338
4073 2 17974008340683327952
445580 126 8142082032167615070
474113 269 18187936109585434519
5104073 3 15503478508481521763
531348 171 18341617027722586269
5364581 5 14924526134234059003
559249 180 18261109691014671721
5718773 13 17987523779211690330
6438161 24 18342741805930860090
6712543 237 16081374089580062286
96874 4 18409454708543842482

> <PUBCHEM_SHAPE_MULTIPOLES>
481.94
22.03
2.48
1.51
1.2
1.03
0.17
20.5
-1.8
4.58
-0.1
-0.6
-0.11
-1.97

> <PUBCHEM_SHAPE_SELFOVERLAP>
1011.352

> <PUBCHEM_SHAPE_VOLUME>
271.5

> <PUBCHEM_COORDINATE_TYPE>
2
5
10

$$$$

