6193
  -OEChem-06261201103D

 75 78  0     1  0  0  0  0  0999 V2000
    5.2232    0.7004   -0.3587 N   0  3  0  0  0  0  0  0  0  0  0  0
   -5.7024    0.4082   -0.4083 N   0  3  0  0  0  0  0  0  0  0  0  0
    3.0415   -0.1661    0.5716 C   0  0  1  0  0  0  0  0  0  0  0  0
    2.1541   -1.3542    0.1287 C   0  0  1  0  0  0  0  0  0  0  0  0
    0.6676   -1.2255    0.5321 C   0  0  1  0  0  0  0  0  0  0  0  0
    0.0533    0.1466    0.1507 C   0  0  1  0  0  0  0  0  0  0  0  0
   -1.4685    0.2670    0.5496 C   0  0  2  0  0  0  0  0  0  0  0  0
    4.3147   -0.4578   -0.2504 C   0  0  1  0  0  0  0  0  0  0  0  0
   -2.2351   -0.9544   -0.0416 C   0  0  1  0  0  0  0  0  0  0  0  0
    2.3743    1.1834    0.2132 C   0  0  0  0  0  0  0  0  0  0  0  0
    0.9298    1.2883    0.7033 C   0  0  0  0  0  0  0  0  0  0  0  0
    2.4272   -1.4833   -1.3841 C   0  0  0  0  0  0  0  0  0  0  0  0
   -0.1618   -2.3904   -0.0284 C   0  0  0  0  0  0  0  0  0  0  0  0
    3.8216   -0.8955   -1.6247 C   0  0  0  0  0  0  0  0  0  0  0  0
   -1.6292   -2.3006    0.3736 C   0  0  0  0  0  0  0  0  0  0  0  0
   -2.0688    1.5768   -0.0595 C   0  0  0  0  0  0  0  0  0  0  0  0
   -3.7476   -0.9271    0.2565 C   0  0  0  0  0  0  0  0  0  0  0  0
    3.3517   -0.2197    2.0771 C   0  0  0  0  0  0  0  0  0  0  0  0
   -4.3439    0.4820    0.1960 C   0  0  1  0  0  0  0  0  0  0  0  0
   -1.6248    0.3265    2.0929 C   0  0  0  0  0  0  0  0  0  0  0  0
   -3.4935    1.4468   -0.6146 C   0  0  0  0  0  0  0  0  0  0  0  0
    4.5148    1.9002   -1.0096 C   0  0  0  0  0  0  0  0  0  0  0  0
    6.4542    0.3597   -1.2150 C   0  0  0  0  0  0  0  0  0  0  0  0
    5.7218    1.1440    1.0267 C   0  0  0  0  0  0  0  0  0  0  0  0
   -6.5895   -0.5569    0.3838 C   0  0  0  0  0  0  0  0  0  0  0  0
   -5.6188   -0.0870   -1.8553 C   0  0  0  0  0  0  0  0  0  0  0  0
   -6.3658    1.7887   -0.4059 C   0  0  0  0  0  0  0  0  0  0  0  0
    2.5423   -2.2709    0.5993 H   0  0  0  0  0  0  0  0  0  0  0  0
    0.6348   -1.3144    1.6252 H   0  0  0  0  0  0  0  0  0  0  0  0
    0.0867    0.2228   -0.9458 H   0  0  0  0  0  0  0  0  0  0  0  0
    4.8837   -1.2850    0.1984 H   0  0  0  0  0  0  0  0  0  0  0  0
   -2.1354   -0.8979   -1.1370 H   0  0  0  0  0  0  0  0  0  0  0  0
    2.2675    1.3361   -0.8600 H   0  0  0  0  0  0  0  0  0  0  0  0
    2.8480    2.0152    0.7328 H   0  0  0  0  0  0  0  0  0  0  0  0
    0.9291    1.2733    1.7989 H   0  0  0  0  0  0  0  0  0  0  0  0
    0.5272    2.2622    0.4026 H   0  0  0  0  0  0  0  0  0  0  0  0
    1.6960   -0.9297   -1.9818 H   0  0  0  0  0  0  0  0  0  0  0  0
    2.3788   -2.5302   -1.7035 H   0  0  0  0  0  0  0  0  0  0  0  0
    0.2497   -3.3436    0.3248 H   0  0  0  0  0  0  0  0  0  0  0  0
   -0.1029   -2.4082   -1.1233 H   0  0  0  0  0  0  0  0  0  0  0  0
    4.4804   -1.6822   -2.0148 H   0  0  0  0  0  0  0  0  0  0  0  0
    3.7655   -0.1518   -2.4193 H   0  0  0  0  0  0  0  0  0  0  0  0
   -2.1774   -3.1190   -0.1091 H   0  0  0  0  0  0  0  0  0  0  0  0
   -1.7289   -2.4569    1.4539 H   0  0  0  0  0  0  0  0  0  0  0  0
   -1.4397    1.9423   -0.8815 H   0  0  0  0  0  0  0  0  0  0  0  0
   -2.0546    2.3759    0.6933 H   0  0  0  0  0  0  0  0  0  0  0  0
   -4.2104   -1.6842   -0.3785 H   0  0  0  0  0  0  0  0  0  0  0  0
   -3.9122   -1.3065    1.2755 H   0  0  0  0  0  0  0  0  0  0  0  0
    4.1257   -0.9569    2.3153 H   0  0  0  0  0  0  0  0  0  0  0  0
    3.6251    0.7395    2.5182 H   0  0  0  0  0  0  0  0  0  0  0  0
    2.4637   -0.5308    2.6394 H   0  0  0  0  0  0  0  0  0  0  0  0
   -4.4712    0.8754    1.2125 H   0  0  0  0  0  0  0  0  0  0  0  0
   -1.1495    1.2203    2.5104 H   0  0  0  0  0  0  0  0  0  0  0  0
   -2.6709    0.3695    2.4057 H   0  0  0  0  0  0  0  0  0  0  0  0
   -1.1816   -0.5395    2.5913 H   0  0  0  0  0  0  0  0  0  0  0  0
   -3.9066    2.4592   -0.6435 H   0  0  0  0  0  0  0  0  0  0  0  0
   -3.3826    1.1203   -1.6539 H   0  0  0  0  0  0  0  0  0  0  0  0
    5.3171    2.4550   -1.5205 H   0  0  0  0  0  0  0  0  0  0  0  0
    3.8482    1.6519   -1.8301 H   0  0  0  0  0  0  0  0  0  0  0  0
    4.1904    2.6523   -0.2926 H   0  0  0  0  0  0  0  0  0  0  0  0
    6.9314   -0.5255   -0.7843 H   0  0  0  0  0  0  0  0  0  0  0  0
    6.1353    0.1686   -2.2430 H   0  0  0  0  0  0  0  0  0  0  0  0
    7.1469    1.2070   -1.1949 H   0  0  0  0  0  0  0  0  0  0  0  0
    4.9737    1.7553    1.5269 H   0  0  0  0  0  0  0  0  0  0  0  0
    6.0201    0.2613    1.5977 H   0  0  0  0  0  0  0  0  0  0  0  0
    6.6001    1.7815    0.8751 H   0  0  0  0  0  0  0  0  0  0  0  0
   -6.5677   -0.2587    1.4362 H   0  0  0  0  0  0  0  0  0  0  0  0
   -7.6108   -0.4829   -0.0038 H   0  0  0  0  0  0  0  0  0  0  0  0
   -6.2390   -1.5838    0.2589 H   0  0  0  0  0  0  0  0  0  0  0  0
   -5.1904    0.6904   -2.4930 H   0  0  0  0  0  0  0  0  0  0  0  0
   -5.0659   -1.0195   -1.9502 H   0  0  0  0  0  0  0  0  0  0  0  0
   -6.6465   -0.2589   -2.1960 H   0  0  0  0  0  0  0  0  0  0  0  0
   -7.4194    1.6606   -0.6749 H   0  0  0  0  0  0  0  0  0  0  0  0
   -6.2868    2.2127    0.5993 H   0  0  0  0  0  0  0  0  0  0  0  0
   -5.8974    2.4341   -1.1525 H   0  0  0  0  0  0  0  0  0  0  0  0
  1  8  1  0  0  0  0
  1 22  1  0  0  0  0
  1 23  1  0  0  0  0
  1 24  1  0  0  0  0
  2 19  1  0  0  0  0
  2 25  1  0  0  0  0
  2 26  1  0  0  0  0
  2 27  1  0  0  0  0
  3  4  1  0  0  0  0
  3  8  1  0  0  0  0
  3 10  1  0  0  0  0
  3 18  1  0  0  0  0
  4  5  1  0  0  0  0
  4 12  1  0  0  0  0
  4 28  1  0  0  0  0
  5  6  1  0  0  0  0
  5 13  1  0  0  0  0
  5 29  1  0  0  0  0
  6  7  1  0  0  0  0
  6 11  1  0  0  0  0
  6 30  1  0  0  0  0
  7  9  1  0  0  0  0
  7 16  1  0  0  0  0
  7 20  1  0  0  0  0
  8 14  1  0  0  0  0
  8 31  1  0  0  0  0
  9 15  1  0  0  0  0
  9 17  1  0  0  0  0
  9 32  1  0  0  0  0
 10 11  1  0  0  0  0
 10 33  1  0  0  0  0
 10 34  1  0  0  0  0
 11 35  1  0  0  0  0
 11 36  1  0  0  0  0
 12 14  1  0  0  0  0
 12 37  1  0  0  0  0
 12 38  1  0  0  0  0
 13 15  1  0  0  0  0
 13 39  1  0  0  0  0
 13 40  1  0  0  0  0
 14 41  1  0  0  0  0
 14 42  1  0  0  0  0
 15 43  1  0  0  0  0
 15 44  1  0  0  0  0
 16 21  1  0  0  0  0
 16 45  1  0  0  0  0
 16 46  1  0  0  0  0
 17 19  1  0  0  0  0
 17 47  1  0  0  0  0
 17 48  1  0  0  0  0
 18 49  1  0  0  0  0
 18 50  1  0  0  0  0
 18 51  1  0  0  0  0
 19 21  1  0  0  0  0
 19 52  1  0  0  0  0
 20 53  1  0  0  0  0
 20 54  1  0  0  0  0
 20 55  1  0  0  0  0
 21 56  1  0  0  0  0
 21 57  1  0  0  0  0
 22 58  1  0  0  0  0
 22 59  1  0  0  0  0
 22 60  1  0  0  0  0
 23 61  1  0  0  0  0
 23 62  1  0  0  0  0
 23 63  1  0  0  0  0
 24 64  1  0  0  0  0
 24 65  1  0  0  0  0
 24 66  1  0  0  0  0
 25 67  1  0  0  0  0
 25 68  1  0  0  0  0
 25 69  1  0  0  0  0
 26 70  1  0  0  0  0
 26 71  1  0  0  0  0
 26 72  1  0  0  0  0
 27 73  1  0  0  0  0
 27 74  1  0  0  0  0
 27 75  1  0  0  0  0
M  CHG  2   1   1   2   1
M  END
> <PUBCHEM_COMPOUND_CID>
6193

> <PUBCHEM_CONFORMER_RMSD>
0.8

> <PUBCHEM_CONFORMER_DIVERSEORDER>
3
2
5
4
1
6

> <PUBCHEM_MMFF94_PARTIAL_CHARGES>
10
1 -1.01
19 0.5
2 -1.01
22 0.5
23 0.5
24 0.5
25 0.5
26 0.5
27 0.5
8 0.5

> <PUBCHEM_EFFECTIVE_ROTOR_COUNT>
4.2

> <PUBCHEM_PHARMACOPHORE_FEATURES>
6
1 1 cation
1 2 cation
5 3 4 8 12 14 rings
6 3 4 5 6 10 11 rings
6 5 6 7 9 13 15 rings
6 7 9 16 17 19 21 rings

> <PUBCHEM_HEAVY_ATOM_COUNT>
27

> <PUBCHEM_ATOM_DEF_STEREO_COUNT>
6

> <PUBCHEM_ATOM_UDEF_STEREO_COUNT>
2

> <PUBCHEM_BOND_DEF_STEREO_COUNT>
0

> <PUBCHEM_BOND_UDEF_STEREO_COUNT>
0

> <PUBCHEM_ISOTOPIC_ATOM_COUNT>
0

> <PUBCHEM_COMPONENT_COUNT>
1

> <PUBCHEM_CACTVS_TAUTO_COUNT>
1

> <PUBCHEM_CONFORMER_ID>
0000183100000003

> <PUBCHEM_MMFF94_ENERGY>
161.6751

> <PUBCHEM_FEATURE_SELFOVERLAP>
30.64

> <PUBCHEM_SHAPE_FINGERPRINT>
10366900 7 17240759579991117386
10498660 4 18411131437910756490
10554248 39 17844267300694650271
10591671 39 18201992214505475855
10670039 82 18340481274770805244
10906281 52 18272357711814484153
11488393 25 17679007447333823319
11578080 2 16300094285025976043
11961588 58 18272932700392190478
12011746 2 18186234031109691446
12107698 1 15864066576863685656
12236239 1 17275107236341631467
12403259 415 18334582317530662681
12516196 113 17894632547743635305
12596602 18 16702303438279721641
12730499 353 18040432196339281398
12788726 201 18260548978111802705
13402501 40 18408886226271130061
13533116 47 16950561125027752974
13583140 156 17203320096420927641
13685833 64 8070027761843296524
13782708 43 5689585087930231373
14251764 30 5111997374820605093
14341114 176 9367344838528340686
14528608 73 18407763646721985069
14790565 3 18411694409413477897
14849402 71 13398331453210695054
15131766 46 15911904013354611774
15183329 4 18342741832054260325
15238133 3 15985098622205303830
15475509 35 7060106476646137588
15788980 27 17989483014136534082
17349148 13 18113339725465045499
173720 79 17846505837179514954
17844677 252 16226048899067304129
18222031 100 5184056025198811611
18335252 98 18412255121905209491
18608769 82 18338793404416350763
200 152 17312822688787911707
20715895 44 18343020003689411260
21033650 10 17701521042843567884
21285901 2 18338795727270744396
21637258 2 5328741846602782222
22122407 14 15625926664623293061
221357 26 17458341966160838024
22149856 69 18337091446595130547
23227448 37 18340483357344224942
23503953 91 14764340510034136370
23516275 137 15575532709960199679
23559900 14 17896044256080327080
23569914 152 16451500713142810917
23622692 88 14333405649142356274
2838139 119 17989215849558642717
3004659 81 18340485668743738938
335352 9 18411133637567067110
3472631 163 18201152166347270972
34797466 226 18335412461377920357
350125 39 18412545418538926721
3545911 37 18334573538416782762
4058900 60 18201432631774902835
4325135 7 18334575745819061229
495365 180 17240776047154108658
5104073 3 18130503162884854363
53794403 172 18197214754583732564
542803 24 17346881147736832945

> <PUBCHEM_SHAPE_MULTIPOLES>
545.69
15.27
1.99
1.48
6.77
0.38
0.13
-5.34
-4.36
0.2
-0.18
-0.75
0.01
0.52

> <PUBCHEM_SHAPE_SELFOVERLAP>
1133.088

> <PUBCHEM_SHAPE_VOLUME>
312.1

> <PUBCHEM_COORDINATE_TYPE>
2
5
10

$$$$

