8358
  -OEChem-06261202463D

 21 22  0     0  0  0  0  0  0999 V2000
   -3.4399   -0.9505   -0.0002 O   0  0  0  0  0  0  0  0  0  0  0  0
    1.4208   -2.4934    0.0009 N   0  0  0  0  0  0  0  0  0  0  0  0
    0.1861   -0.3631   -0.0001 C   0  0  0  0  0  0  0  0  0  0  0  0
    0.2177    1.0519    0.0003 C   0  0  0  0  0  0  0  0  0  0  0  0
    1.3955   -1.0769   -0.0003 C   0  0  0  0  0  0  0  0  0  0  0  0
   -1.0539   -1.0223   -0.0002 C   0  0  0  0  0  0  0  0  0  0  0  0
    1.4577    1.7112    0.0002 C   0  0  0  0  0  0  0  0  0  0  0  0
   -0.9917    1.7657    0.0004 C   0  0  0  0  0  0  0  0  0  0  0  0
    2.6185   -0.4056   -0.0005 C   0  0  0  0  0  0  0  0  0  0  0  0
   -2.2457   -0.2971   -0.0002 C   0  0  0  0  0  0  0  0  0  0  0  0
    2.6495    0.9858   -0.0002 C   0  0  0  0  0  0  0  0  0  0  0  0
   -2.2147    1.0943    0.0001 C   0  0  0  0  0  0  0  0  0  0  0  0
   -1.1360   -2.1052   -0.0004 H   0  0  0  0  0  0  0  0  0  0  0  0
   -0.9913    2.8537    0.0006 H   0  0  0  0  0  0  0  0  0  0  0  0
    1.5060    2.7982    0.0004 H   0  0  0  0  0  0  0  0  0  0  0  0
    3.5563   -0.9558   -0.0004 H   0  0  0  0  0  0  0  0  0  0  0  0
    3.6019    1.5081   -0.0002 H   0  0  0  0  0  0  0  0  0  0  0  0
   -3.1361    1.6704    0.0001 H   0  0  0  0  0  0  0  0  0  0  0  0
    0.5791   -3.0485   -0.0020 H   0  0  0  0  0  0  0  0  0  0  0  0
    2.3143   -2.9690   -0.0007 H   0  0  0  0  0  0  0  0  0  0  0  0
   -4.1583   -0.2948   -0.0001 H   0  0  0  0  0  0  0  0  0  0  0  0
  1 10  1  0  0  0  0
  1 21  1  0  0  0  0
  2  5  1  0  0  0  0
  2 19  1  0  0  0  0
  2 20  1  0  0  0  0
  3  4  2  0  0  0  0
  3  5  1  0  0  0  0
  3  6  1  0  0  0  0
  4  7  1  0  0  0  0
  4  8  1  0  0  0  0
  5  9  2  0  0  0  0
  6 10  2  0  0  0  0
  6 13  1  0  0  0  0
  7 11  2  0  0  0  0
  7 15  1  0  0  0  0
  8 12  2  0  0  0  0
  8 14  1  0  0  0  0
  9 11  1  0  0  0  0
  9 16  1  0  0  0  0
 10 12  1  0  0  0  0
 11 17  1  0  0  0  0
 12 18  1  0  0  0  0
M  END
> <PUBCHEM_COMPOUND_CID>
8358

> <PUBCHEM_CONFORMER_RMSD>
0.4

> <PUBCHEM_CONFORMER_DIVERSEORDER>
1

> <PUBCHEM_MMFF94_PARTIAL_CHARGES>
19
1 -0.53
10 0.08
11 -0.15
12 -0.15
13 0.15
14 0.15
15 0.15
16 0.15
17 0.15
18 0.15
19 0.4
2 -0.9
20 0.4
21 0.45
5 0.1
6 -0.15
7 -0.15
8 -0.15
9 -0.15

> <PUBCHEM_EFFECTIVE_ROTOR_COUNT>
0

> <PUBCHEM_PHARMACOPHORE_FEATURES>
5
1 1 donor
1 2 cation
1 2 donor
6 3 4 5 7 9 11 rings
6 3 4 6 8 10 12 rings

> <PUBCHEM_HEAVY_ATOM_COUNT>
12

> <PUBCHEM_ATOM_DEF_STEREO_COUNT>
0

> <PUBCHEM_ATOM_UDEF_STEREO_COUNT>
0

> <PUBCHEM_BOND_DEF_STEREO_COUNT>
0

> <PUBCHEM_BOND_UDEF_STEREO_COUNT>
0

> <PUBCHEM_ISOTOPIC_ATOM_COUNT>
0

> <PUBCHEM_COMPONENT_COUNT>
1

> <PUBCHEM_CACTVS_TAUTO_COUNT>
5

> <PUBCHEM_CONFORMER_ID>
000020A600000001

> <PUBCHEM_MMFF94_ENERGY>
46.7635

> <PUBCHEM_FEATURE_SELFOVERLAP>
25.398

> <PUBCHEM_SHAPE_FINGERPRINT>
10967382 1 18338797788780855014
11206711 2 18413103987182263612
11471102 20 18411142407346933845
12423570 1 15031992838956556276
12524768 44 18120371222604960055
12897270 3 18411419501024492341
13380535 76 18341334388002824562
14325111 11 18410573968003633220
16945 1 18410856563961267044
17844478 74 18131341995477630153
17990270 104 18339080505166787490
193761 8 18194683893506161380
19973954 147 18338234993488551809
20201158 50 18413672400523963107
20645477 70 18409172112870577903
21040471 1 18122624942680561056
21501502 16 18339359776703930025
2334 1 17762056536490043015
23402655 69 18336844082043177093
23463225 33 18342462568953720904
23552423 10 18342171215008897444
23559900 14 17398673892963920814
241688 4 17980197809684951672
2748010 2 18194403518067244580
5084963 1 18187079529517961856
528886 8 18265901258918123632
7364860 26 18261957457044367990
8809292 202 18201995486938473595

> <PUBCHEM_SHAPE_MULTIPOLES>
236.1
4.09
2.1
0.6
1.3
0.33
0
0.4
0
-0.51
0
-0.02
-0.03
0

> <PUBCHEM_SHAPE_SELFOVERLAP>
520.919

> <PUBCHEM_SHAPE_VOLUME>
127.9

> <PUBCHEM_COORDINATE_TYPE>
2
5
10

$$$$

