17395395
  -OEChem-06241222503D

 51 51  0     0  0  0  0  0  0999 V2000
    4.4418    0.9403   -0.3628 O   0  0  0  0  0  0  0  0  0  0  0  0
   -3.3813    0.0743   -1.0076 O   0  0  0  0  0  0  0  0  0  0  0  0
   -0.9593    0.8982    1.4861 O   0  0  0  0  0  0  0  0  0  0  0  0
    5.0817   -1.2517   -0.1583 O   0  0  0  0  0  0  0  0  0  0  0  0
   -5.2074   -0.0084    0.4263 N   0  0  0  0  0  0  0  0  0  0  0  0
    0.8580   -1.8138   -0.0716 N   0  0  0  0  0  0  0  0  0  0  0  0
   -1.7692   -1.1304    0.7718 N   0  0  0  0  0  0  0  0  0  0  0  0
   -6.1637    0.6507   -0.4444 C   0  0  0  0  0  0  0  0  0  0  0  0
   -7.5184    0.7418    0.2675 C   0  0  0  0  0  0  0  0  0  0  0  0
   -5.6549    2.0581   -0.7731 C   0  0  0  0  0  0  0  0  0  0  0  0
   -6.3160   -0.1608   -1.7362 C   0  0  0  0  0  0  0  0  0  0  0  0
    1.7706    0.1133    0.5490 C   0  0  0  0  0  0  0  0  0  0  0  0
    0.5912   -0.5965    0.4985 C   0  0  0  0  0  0  0  0  0  0  0  0
    2.7818   -0.7061   -0.0108 C   0  0  0  0  0  0  0  0  0  0  0  0
    2.1896   -1.8915   -0.3865 C   0  0  0  0  0  0  0  0  0  0  0  0
   -3.8917   -0.2397    0.0647 C   0  0  0  0  0  0  0  0  0  0  0  0
   -3.1184   -0.8913    1.1913 C   0  0  0  0  0  0  0  0  0  0  0  0
   -0.7470   -0.1919    0.9519 C   0  0  0  0  0  0  0  0  0  0  0  0
    1.9499    1.4781    1.0879 C   0  0  0  0  0  0  0  0  0  0  0  0
    4.1751   -0.4015   -0.1766 C   0  0  0  0  0  0  0  0  0  0  0  0
    2.7503   -3.1025   -1.0169 C   0  0  0  0  0  0  0  0  0  0  0  0
    5.8134    1.3145   -0.5346 C   0  0  0  0  0  0  0  0  0  0  0  0
    6.4335    1.5846    0.8279 C   0  0  0  0  0  0  0  0  0  0  0  0
    5.8900    2.5319   -1.4434 C   0  0  0  0  0  0  0  0  0  0  0  0
   -5.5198   -0.3036    1.3473 H   0  0  0  0  0  0  0  0  0  0  0  0
   -7.8975   -0.2542    0.5246 H   0  0  0  0  0  0  0  0  0  0  0  0
   -7.4360    1.3092    1.2020 H   0  0  0  0  0  0  0  0  0  0  0  0
   -8.2682    1.2355   -0.3604 H   0  0  0  0  0  0  0  0  0  0  0  0
   -4.7407    2.0553   -1.3741 H   0  0  0  0  0  0  0  0  0  0  0  0
   -5.4439    2.6249    0.1416 H   0  0  0  0  0  0  0  0  0  0  0  0
   -6.4050    2.6185   -1.3434 H   0  0  0  0  0  0  0  0  0  0  0  0
   -5.4046   -0.1789   -2.3411 H   0  0  0  0  0  0  0  0  0  0  0  0
   -6.5853   -1.2011   -1.5185 H   0  0  0  0  0  0  0  0  0  0  0  0
   -7.1063    0.2604   -2.3687 H   0  0  0  0  0  0  0  0  0  0  0  0
    0.1865   -2.5496   -0.2388 H   0  0  0  0  0  0  0  0  0  0  0  0
   -3.1359   -0.2437    2.0735 H   0  0  0  0  0  0  0  0  0  0  0  0
   -3.5733   -1.8560    1.4362 H   0  0  0  0  0  0  0  0  0  0  0  0
   -1.5825   -2.0193    0.3215 H   0  0  0  0  0  0  0  0  0  0  0  0
    2.9581    1.6298    1.4854 H   0  0  0  0  0  0  0  0  0  0  0  0
    1.2768    1.6831    1.9247 H   0  0  0  0  0  0  0  0  0  0  0  0
    1.7695    2.2247    0.3081 H   0  0  0  0  0  0  0  0  0  0  0  0
    3.3486   -2.8403   -1.8955 H   0  0  0  0  0  0  0  0  0  0  0  0
    1.9650   -3.7911   -1.3462 H   0  0  0  0  0  0  0  0  0  0  0  0
    3.3922   -3.6389   -0.3109 H   0  0  0  0  0  0  0  0  0  0  0  0
    6.3697    0.5098   -1.0311 H   0  0  0  0  0  0  0  0  0  0  0  0
    5.8852    2.3725    1.3561 H   0  0  0  0  0  0  0  0  0  0  0  0
    7.4805    1.8889    0.7349 H   0  0  0  0  0  0  0  0  0  0  0  0
    6.3876    0.6923    1.4609 H   0  0  0  0  0  0  0  0  0  0  0  0
    5.3315    3.3728   -1.0175 H   0  0  0  0  0  0  0  0  0  0  0  0
    6.9258    2.8447   -1.6065 H   0  0  0  0  0  0  0  0  0  0  0  0
    5.4335    2.3116   -2.4144 H   0  0  0  0  0  0  0  0  0  0  0  0
  1 20  1  0  0  0  0
  1 22  1  0  0  0  0
  2 16  2  0  0  0  0
  3 18  2  0  0  0  0
  4 20  2  0  0  0  0
  5  8  1  0  0  0  0
  5 16  1  0  0  0  0
  5 25  1  0  0  0  0
  6 13  1  0  0  0  0
  6 15  1  0  0  0  0
  6 35  1  0  0  0  0
  7 17  1  0  0  0  0
  7 18  1  0  0  0  0
  7 38  1  0  0  0  0
  8  9  1  0  0  0  0
  8 10  1  0  0  0  0
  8 11  1  0  0  0  0
  9 26  1  0  0  0  0
  9 27  1  0  0  0  0
  9 28  1  0  0  0  0
 10 29  1  0  0  0  0
 10 30  1  0  0  0  0
 10 31  1  0  0  0  0
 11 32  1  0  0  0  0
 11 33  1  0  0  0  0
 11 34  1  0  0  0  0
 12 13  2  0  0  0  0
 12 14  1  0  0  0  0
 12 19  1  0  0  0  0
 13 18  1  0  0  0  0
 14 15  2  0  0  0  0
 14 20  1  0  0  0  0
 15 21  1  0  0  0  0
 16 17  1  0  0  0  0
 17 36  1  0  0  0  0
 17 37  1  0  0  0  0
 19 39  1  0  0  0  0
 19 40  1  0  0  0  0
 19 41  1  0  0  0  0
 21 42  1  0  0  0  0
 21 43  1  0  0  0  0
 21 44  1  0  0  0  0
 22 23  1  0  0  0  0
 22 24  1  0  0  0  0
 22 45  1  0  0  0  0
 23 46  1  0  0  0  0
 23 47  1  0  0  0  0
 23 48  1  0  0  0  0
 24 49  1  0  0  0  0
 24 50  1  0  0  0  0
 24 51  1  0  0  0  0
M  END
> <PUBCHEM_COMPOUND_CID>
17395395

> <PUBCHEM_CONFORMER_RMSD>
1

> <PUBCHEM_CONFORMER_DIVERSEORDER>
1
56
30
53
28
64
24
68
27
39
57
75
62
14
45
76
49
4
48
69
58
31
61
19
72
26
36
65
13
15
25
59
3
20
52
46
55
40
73
5
60
9
74
16
71
47
66
37
17
11
50
7
67
21
35
33
44
41
70
8
43
54
6
32
42
51
12
10
63
2
29
22
34
38
18
23

> <PUBCHEM_MMFF94_PARTIAL_CHARGES>
22
1 -0.43
12 -0.18
13 -0.24
14 -0.09
15 -0.33
16 0.57
17 0.36
18 0.71
19 0.18
2 -0.57
20 0.81
21 0.18
22 0.28
25 0.37
3 -0.57
35 0.27
38 0.37
4 -0.57
5 -0.73
6 0.03
7 -0.73
8 0.3

> <PUBCHEM_EFFECTIVE_ROTOR_COUNT>
9

> <PUBCHEM_PHARMACOPHORE_FEATURES>
10
1 2 acceptor
1 3 acceptor
1 4 acceptor
1 5 donor
1 6 cation
1 6 donor
1 7 donor
3 22 23 24 hydrophobe
4 8 9 10 11 hydrophobe
5 6 12 13 14 15 rings

> <PUBCHEM_HEAVY_ATOM_COUNT>
24

> <PUBCHEM_ATOM_DEF_STEREO_COUNT>
0

> <PUBCHEM_ATOM_UDEF_STEREO_COUNT>
0

> <PUBCHEM_BOND_DEF_STEREO_COUNT>
0

> <PUBCHEM_BOND_UDEF_STEREO_COUNT>
0

> <PUBCHEM_ISOTOPIC_ATOM_COUNT>
0

> <PUBCHEM_COMPONENT_COUNT>
1

> <PUBCHEM_CACTVS_TAUTO_COUNT>
10

> <PUBCHEM_CONFORMER_ID>
01096EC300000001

> <PUBCHEM_MMFF94_ENERGY>
42.1041

> <PUBCHEM_FEATURE_SELFOVERLAP>
50.746

> <PUBCHEM_SHAPE_FINGERPRINT>
10 15 16773794770886504893
10595046 47 18260269681173666031
10693767 8 17385996330500205990
10835480 77 18413669101915077433
11719270 70 18333455361294376242
11796584 16 15719402732986670599
12236239 1 17022904566561620459
12730499 353 18412822508174628355
12838862 33 18261118414489493304
13540713 5 17461140317642673026
13668630 136 15502380006999411141
13685833 64 8718833080846201748
13968360 50 18334013904669374294
14251764 18 11743834759845450834
14251764 30 6771871761965324776
14528608 73 17967251983664635384
14767858 380 18040149604697259184
15183329 4 17385444345645457953
15352257 5 6555414223203876940
15475509 35 6483080588108410180
17980427 23 17274537599187856630
18222031 100 15140681392654324234
18335252 114 18411699868907527988
18335252 98 18410849933597749491
18608769 82 18271520902420706411
18681886 176 15502383296147768339
20157964 124 18413106178232827538
20281389 69 17346883364283004949
20554085 129 17895771621190751754
20645477 70 18115868666934853991
20715895 44 18342736278862026324
21033648 29 18129947758941422064
21150785 3 16515685511698975296
21424621 283 17561081449478396409
21521239 73 17240470426166685230
21637258 2 4823222680214964836
220451 1 17530686524576307791
221357 26 18261683674908193465
22289505 5 18336549416356405232
23081809 10 17603578668739366795
23522609 53 17532067523722974737
23559900 14 18188216403319577369
25147074 1 17677882612203596074
2838139 119 17917439687252476821
2916195 48 17703790327795934957
29717793 49 17676481800251616662
3004659 81 18115590494482084375
33382 64 6555423011244541052
335352 9 18261103077334644502
4072396 5 18410022044038291922
4073 2 18343015584938606339
4340502 62 16774082864945629738
5104073 3 12246861368223650413
6327066 14 18266172830613360204
8863177 126 7997962475340028636

> <PUBCHEM_SHAPE_MULTIPOLES>
455.49
19.18
2.35
1.28
16.16
0.51
-0.13
-11.39
-5.46
-3.54
-0.82
0.4
-0.23
0.35

> <PUBCHEM_SHAPE_SELFOVERLAP>
927.837

> <PUBCHEM_SHAPE_VOLUME>
266.4

> <PUBCHEM_COORDINATE_TYPE>
2
5
10

$$$$

