13742
  -OEChem-06241222402D

 30 30  0     0  0  0  0  0  0999 V2000
    6.3301    3.7500    0.0000 Cl  0  0  0  0  0  0  0  0  0  0  0  0
    2.0000   -3.7500    0.0000 Cl  0  0  0  0  0  0  0  0  0  0  0  0
    8.9282   -0.7500    0.0000 Cl  0  0  0  0  0  0  0  0  0  0  0  0
    4.5981    1.7500    0.0000 O   0  0  0  0  0  0  0  0  0  0  0  0
    2.8660   -1.2500    0.0000 O   0  0  0  0  0  0  0  0  0  0  0  0
    6.3301   -1.2500    0.0000 O   0  0  0  0  0  0  0  0  0  0  0  0
    4.5981   -1.2500    0.0000 N   0  0  0  0  0  0  0  0  0  0  0  0
    5.4641    0.2500    0.0000 N   0  0  0  0  0  0  0  0  0  0  0  0
    3.7320    0.2500    0.0000 N   0  0  0  0  0  0  0  0  0  0  0  0
    5.4641    2.2500    0.0000 C   0  0  0  0  0  0  0  0  0  0  0  0
    2.8660   -2.2500    0.0000 C   0  0  0  0  0  0  0  0  0  0  0  0
    7.1962   -0.7500    0.0000 C   0  0  0  0  0  0  0  0  0  0  0  0
    4.5981    0.7500    0.0000 C   0  0  0  0  0  0  0  0  0  0  0  0
    3.7320   -0.7500    0.0000 C   0  0  0  0  0  0  0  0  0  0  0  0
    5.4641   -0.7500    0.0000 C   0  0  0  0  0  0  0  0  0  0  0  0
    8.0622   -1.2500    0.0000 C   0  0  0  0  0  0  0  0  0  0  0  0
    2.0000   -2.7500    0.0000 C   0  0  0  0  0  0  0  0  0  0  0  0
    5.4641    3.2500    0.0000 C   0  0  0  0  0  0  0  0  0  0  0  0
    5.6762    1.6674    0.0000 H   0  0  0  0  0  0  0  0  0  0  0  0
    6.0747    2.3577    0.0000 H   0  0  0  0  0  0  0  0  0  0  0  0
    3.0781   -2.8326    0.0000 H   0  0  0  0  0  0  0  0  0  0  0  0
    3.4766   -2.1423    0.0000 H   0  0  0  0  0  0  0  0  0  0  0  0
    7.5947   -0.2751    0.0000 H   0  0  0  0  0  0  0  0  0  0  0  0
    6.7976   -0.2751    0.0000 H   0  0  0  0  0  0  0  0  0  0  0  0
    5.2520    3.8326    0.0000 H   0  0  0  0  0  0  0  0  0  0  0  0
    4.8535    3.1423    0.0000 H   0  0  0  0  0  0  0  0  0  0  0  0
    1.7880   -2.1674    0.0000 H   0  0  0  0  0  0  0  0  0  0  0  0
    1.3894   -2.8577    0.0000 H   0  0  0  0  0  0  0  0  0  0  0  0
    7.6636   -1.7250    0.0000 H   0  0  0  0  0  0  0  0  0  0  0  0
    8.4607   -1.7250    0.0000 H   0  0  0  0  0  0  0  0  0  0  0  0
  1 18  1  0  0  0  0
  2 17  1  0  0  0  0
  3 16  1  0  0  0  0
  4 10  1  0  0  0  0
  4 13  1  0  0  0  0
  5 11  1  0  0  0  0
  5 14  1  0  0  0  0
  6 12  1  0  0  0  0
  6 15  1  0  0  0  0
  7 14  1  0  0  0  0
  7 15  2  0  0  0  0
  8 13  2  0  0  0  0
  8 15  1  0  0  0  0
  9 13  1  0  0  0  0
  9 14  2  0  0  0  0
 10 18  1  0  0  0  0
 10 19  1  0  0  0  0
 10 20  1  0  0  0  0
 11 17  1  0  0  0  0
 11 21  1  0  0  0  0
 11 22  1  0  0  0  0
 12 16  1  0  0  0  0
 12 23  1  0  0  0  0
 12 24  1  0  0  0  0
 16 29  1  0  0  0  0
 16 30  1  0  0  0  0
 17 27  1  0  0  0  0
 17 28  1  0  0  0  0
 18 25  1  0  0  0  0
 18 26  1  0  0  0  0
M  END
> <PUBCHEM_COMPOUND_CID>
13742

> <PUBCHEM_COMPOUND_CANONICALIZED>
1

> <PUBCHEM_CACTVS_COMPLEXITY>
172

> <PUBCHEM_CACTVS_HBOND_ACCEPTOR>
6

> <PUBCHEM_CACTVS_HBOND_DONOR>
0

> <PUBCHEM_CACTVS_ROTATABLE_BOND>
9

> <PUBCHEM_CACTVS_SUBSKEYS>
AAADccBzMAAGAAAAAAAAAAAAAAAAAAAAAAAsAAAAAAAAAAABgAAAHgIAAAAAAAOggEIBEAYIFAAgAAAAJAAAAAkAAIABAAAAAQCACAAAAAAIAAAIAAAAAAAAAAAAAAAAAAAAAAAAAAAAAAAAAAAAAAAAAA==

> <PUBCHEM_IUPAC_OPENEYE_NAME>
2,4,6-tris(2-chloroethoxy)-1,3,5-triazine

> <PUBCHEM_IUPAC_CAS_NAME>
2,4,6-tris(2-chloroethoxy)-1,3,5-triazine

> <PUBCHEM_IUPAC_NAME>
2,4,6-tris(2-chloroethoxy)-1,3,5-triazine

> <PUBCHEM_IUPAC_SYSTEMATIC_NAME>
2,4,6-tris(2-chloroethyloxy)-1,3,5-triazine

> <PUBCHEM_IUPAC_TRADITIONAL_NAME>
2,4,6-tris(2-chloroethoxy)-s-triazine

> <PUBCHEM_IUPAC_INCHI>
InChI=1S/C9H12Cl3N3O3/c10-1-4-16-7-13-8(17-5-2-11)15-9(14-7)18-6-3-12/h1-6H2

> <PUBCHEM_IUPAC_INCHIKEY>
FBHQUDFHAAGIPZ-UHFFFAOYSA-N

> <PUBCHEM_XLOGP3_AA>
2.7

> <PUBCHEM_EXACT_MASS>
314.994424

> <PUBCHEM_MOLECULAR_FORMULA>
C9H12Cl3N3O3

> <PUBCHEM_MOLECULAR_WEIGHT>
316.56888

> <PUBCHEM_OPENEYE_CAN_SMILES>
C(CCl)OC1=NC(=NC(=N1)OCCCl)OCCCl

> <PUBCHEM_OPENEYE_ISO_SMILES>
C(CCl)OC1=NC(=NC(=N1)OCCCl)OCCCl

> <PUBCHEM_CACTVS_TPSA>
66.4

> <PUBCHEM_MONOISOTOPIC_WEIGHT>
314.994424

> <PUBCHEM_TOTAL_CHARGE>
0

> <PUBCHEM_HEAVY_ATOM_COUNT>
18

> <PUBCHEM_ATOM_DEF_STEREO_COUNT>
0

> <PUBCHEM_ATOM_UDEF_STEREO_COUNT>
0

> <PUBCHEM_BOND_DEF_STEREO_COUNT>
0

> <PUBCHEM_BOND_UDEF_STEREO_COUNT>
0

> <PUBCHEM_ISOTOPIC_ATOM_COUNT>
0

> <PUBCHEM_COMPONENT_COUNT>
1

> <PUBCHEM_CACTVS_TAUTO_COUNT>
1

> <PUBCHEM_COORDINATE_TYPE>
1
5
255

> <PUBCHEM_BONDANNOTATIONS>
7  14  8
7  15  8
8  13  8
8  15  8
9  13  8
9  14  8

$$$$

