17396029
  -OEChem-06241222543D

 63 67  0     1  0  0  0  0  0999 V2000
   -3.6589    2.6555    0.5251 S   0  0  0  0  0  0  0  0  0  0  0  0
    1.9998    0.8469   -2.1453 O   0  0  0  0  0  0  0  0  0  0  0  0
   -4.2098    3.5652   -0.4559 O   0  0  0  0  0  0  0  0  0  0  0  0
   -3.8917    2.8527    1.9396 O   0  0  0  0  0  0  0  0  0  0  0  0
    3.3871   -0.7834   -0.7778 N   0  0  1  0  0  0  0  0  0  0  0  0
    0.6467    1.6279   -0.4270 N   0  0  0  0  0  0  0  0  0  0  0  0
   -1.9740    2.4979    0.2564 N   0  0  0  0  0  0  0  0  0  0  0  0
    6.3663   -0.4153    1.4371 N   0  0  0  0  0  0  0  0  0  0  0  0
    4.4709   -1.3504    0.0489 C   0  0  1  0  0  0  0  0  0  0  0  0
    4.9699   -2.5731   -0.7409 C   0  0  0  0  0  0  0  0  0  0  0  0
    2.8196   -1.9000   -1.5341 C   0  0  0  0  0  0  0  0  0  0  0  0
    4.0633   -2.6538   -1.9613 C   0  0  0  0  0  0  0  0  0  0  0  0
    2.3775   -0.0798    0.0027 C   0  0  0  0  0  0  0  0  0  0  0  0
    5.5758   -0.3487    0.3197 C   0  0  0  0  0  0  0  0  0  0  0  0
    1.6640    0.8371   -0.9584 C   0  0  0  0  0  0  0  0  0  0  0  0
   -0.0493    2.5944   -1.2775 C   0  0  0  0  0  0  0  0  0  0  0  0
    0.2229    1.6404    0.9781 C   0  0  0  0  0  0  0  0  0  0  0  0
   -1.5602    2.4169   -1.1770 C   0  0  0  0  0  0  0  0  0  0  0  0
   -1.2885    1.4625    1.0877 C   0  0  0  0  0  0  0  0  0  0  0  0
    5.9849    0.7371   -0.4225 C   0  0  0  0  0  0  0  0  0  0  0  0
    7.2743    0.6112    1.4190 C   0  0  0  0  0  0  0  0  0  0  0  0
    7.0594    1.3445    0.2731 C   0  0  0  0  0  0  0  0  0  0  0  0
    6.2726   -1.4091    2.4839 C   0  0  0  0  0  0  0  0  0  0  0  0
   -4.1904    1.0247    0.1083 C   0  0  0  0  0  0  0  0  0  0  0  0
   -4.2490    0.0374    1.0923 C   0  0  0  0  0  0  0  0  0  0  0  0
   -4.5506    0.7243   -1.2020 C   0  0  0  0  0  0  0  0  0  0  0  0
   -4.6691   -1.2650    0.7767 C   0  0  0  0  0  0  0  0  0  0  0  0
   -5.0355   -1.5703   -0.5557 C   0  0  0  0  0  0  0  0  0  0  0  0
   -4.9707   -0.5642   -1.5333 C   0  0  0  0  0  0  0  0  0  0  0  0
   -4.7343   -2.2710    1.7546 C   0  0  0  0  0  0  0  0  0  0  0  0
   -5.4556   -2.8729   -0.8712 C   0  0  0  0  0  0  0  0  0  0  0  0
   -5.1539   -3.5596    1.4234 C   0  0  0  0  0  0  0  0  0  0  0  0
   -5.5137   -3.8600    0.1131 C   0  0  0  0  0  0  0  0  0  0  0  0
    4.0509   -1.7106    0.9979 H   0  0  0  0  0  0  0  0  0  0  0  0
    6.0213   -2.5115   -1.0422 H   0  0  0  0  0  0  0  0  0  0  0  0
    4.8486   -3.4782   -0.1333 H   0  0  0  0  0  0  0  0  0  0  0  0
    2.1936   -2.5448   -0.9038 H   0  0  0  0  0  0  0  0  0  0  0  0
    2.2352   -1.5926   -2.4057 H   0  0  0  0  0  0  0  0  0  0  0  0
    4.5401   -2.1534   -2.8133 H   0  0  0  0  0  0  0  0  0  0  0  0
    3.8497   -3.6873   -2.2491 H   0  0  0  0  0  0  0  0  0  0  0  0
    1.6774   -0.7671    0.4891 H   0  0  0  0  0  0  0  0  0  0  0  0
    2.8500    0.5526    0.7636 H   0  0  0  0  0  0  0  0  0  0  0  0
    0.2688    2.4979   -2.3203 H   0  0  0  0  0  0  0  0  0  0  0  0
    0.2436    3.5940   -0.9339 H   0  0  0  0  0  0  0  0  0  0  0  0
    0.7234    0.8702    1.5670 H   0  0  0  0  0  0  0  0  0  0  0  0
    0.5227    2.6116    1.3902 H   0  0  0  0  0  0  0  0  0  0  0  0
   -2.0437    3.2064   -1.7601 H   0  0  0  0  0  0  0  0  0  0  0  0
   -1.8398    1.4441   -1.5945 H   0  0  0  0  0  0  0  0  0  0  0  0
   -1.5476    0.4592    0.7344 H   0  0  0  0  0  0  0  0  0  0  0  0
   -1.5808    1.5625    2.1376 H   0  0  0  0  0  0  0  0  0  0  0  0
    5.5634    1.0616   -1.3640 H   0  0  0  0  0  0  0  0  0  0  0  0
    7.9953    0.7394    2.2153 H   0  0  0  0  0  0  0  0  0  0  0  0
    7.6167    2.2202   -0.0280 H   0  0  0  0  0  0  0  0  0  0  0  0
    7.0996   -1.2774    3.1865 H   0  0  0  0  0  0  0  0  0  0  0  0
    6.3341   -2.4023    2.0323 H   0  0  0  0  0  0  0  0  0  0  0  0
    5.3216   -1.2731    3.0047 H   0  0  0  0  0  0  0  0  0  0  0  0
   -3.9665    0.2706    2.1169 H   0  0  0  0  0  0  0  0  0  0  0  0
   -4.5100    1.4763   -1.9849 H   0  0  0  0  0  0  0  0  0  0  0  0
   -5.2465   -0.7767   -2.5641 H   0  0  0  0  0  0  0  0  0  0  0  0
   -4.4577   -2.0590    2.7853 H   0  0  0  0  0  0  0  0  0  0  0  0
   -5.7417   -3.1302   -1.8889 H   0  0  0  0  0  0  0  0  0  0  0  0
   -5.1995   -4.3285    2.1891 H   0  0  0  0  0  0  0  0  0  0  0  0
   -5.8403   -4.8635   -0.1441 H   0  0  0  0  0  0  0  0  0  0  0  0
  1  3  2  0  0  0  0
  1  4  2  0  0  0  0
  1  7  1  0  0  0  0
  1 24  1  0  0  0  0
  2 15  2  0  0  0  0
  5  9  1  0  0  0  0
  5 11  1  0  0  0  0
  5 13  1  0  0  0  0
  6 15  1  0  0  0  0
  6 16  1  0  0  0  0
  6 17  1  0  0  0  0
  7 18  1  0  0  0  0
  7 19  1  0  0  0  0
  8 14  1  0  0  0  0
  8 21  1  0  0  0  0
  8 23  1  0  0  0  0
  9 10  1  0  0  0  0
  9 14  1  0  0  0  0
  9 34  1  0  0  0  0
 10 12  1  0  0  0  0
 10 35  1  0  0  0  0
 10 36  1  0  0  0  0
 11 12  1  0  0  0  0
 11 37  1  0  0  0  0
 11 38  1  0  0  0  0
 12 39  1  0  0  0  0
 12 40  1  0  0  0  0
 13 15  1  0  0  0  0
 13 41  1  0  0  0  0
 13 42  1  0  0  0  0
 14 20  2  0  0  0  0
 16 18  1  0  0  0  0
 16 43  1  0  0  0  0
 16 44  1  0  0  0  0
 17 19  1  0  0  0  0
 17 45  1  0  0  0  0
 17 46  1  0  0  0  0
 18 47  1  0  0  0  0
 18 48  1  0  0  0  0
 19 49  1  0  0  0  0
 19 50  1  0  0  0  0
 20 22  1  0  0  0  0
 20 51  1  0  0  0  0
 21 22  2  0  0  0  0
 21 52  1  0  0  0  0
 22 53  1  0  0  0  0
 23 54  1  0  0  0  0
 23 55  1  0  0  0  0
 23 56  1  0  0  0  0
 24 25  2  0  0  0  0
 24 26  1  0  0  0  0
 25 27  1  0  0  0  0
 25 57  1  0  0  0  0
 26 29  2  0  0  0  0
 26 58  1  0  0  0  0
 27 28  1  0  0  0  0
 27 30  2  0  0  0  0
 28 29  1  0  0  0  0
 28 31  2  0  0  0  0
 29 59  1  0  0  0  0
 30 32  1  0  0  0  0
 30 60  1  0  0  0  0
 31 33  1  0  0  0  0
 31 61  1  0  0  0  0
 32 33  2  0  0  0  0
 32 62  1  0  0  0  0
 33 63  1  0  0  0  0
M  END
> <PUBCHEM_COMPOUND_CID>
17396029

> <PUBCHEM_CONFORMER_RMSD>
1.4

> <PUBCHEM_CONFORMER_DIVERSEORDER>
1
120
60
8
97
39
125
16
131
139
69
48
6
33
133
40
10
20
34
127
110
52
104
44
108
114
55
7
138
90
119
2
136
102
137
32
111
88
93
15
30
105
77
24
51
86
128
49
66
73
79
78
54
113
36
124
83
80
132
12
118
121
87
142
115
134
31
106
126
143
129
41
107
140
63
123
141
42
23
25
4
122
56
116
62
45
22
75
85
98
64
14
18
26
5
99
53
57
130
35
81
37
47
27
61
101
89
109
70
76
100
103
91
84
67
65
92
82
38
95
46
112
43
11
17
58
72
94
29
21
13
74
117
59
19
68
96
28
50
9
135
3
71

> <PUBCHEM_MMFF94_PARTIAL_CHARGES>
39
1 1.45
11 0.27
13 0.33
14 -0.33
15 0.57
16 0.3
17 0.3
18 0.36
19 0.36
2 -0.57
20 -0.15
21 -0.3
22 -0.15
23 0.26
24 -0.01
25 -0.15
26 -0.15
29 -0.15
3 -0.65
30 -0.15
31 -0.15
32 -0.15
33 -0.15
4 -0.65
5 -0.81
51 0.15
52 0.15
53 0.15
57 0.15
58 0.15
59 0.15
6 -0.66
60 0.15
61 0.15
62 0.15
63 0.15
7 -0.85
8 0.05
9 0.45

> <PUBCHEM_EFFECTIVE_ROTOR_COUNT>
8.2

> <PUBCHEM_PHARMACOPHORE_FEATURES>
10
1 2 acceptor
1 3 acceptor
1 4 acceptor
1 5 cation
1 8 cation
5 5 9 10 11 12 rings
5 8 14 20 21 22 rings
6 24 25 26 27 28 29 rings
6 27 28 30 31 32 33 rings
6 6 7 16 17 18 19 rings

> <PUBCHEM_HEAVY_ATOM_COUNT>
33

> <PUBCHEM_ATOM_DEF_STEREO_COUNT>
0

> <PUBCHEM_ATOM_UDEF_STEREO_COUNT>
1

> <PUBCHEM_BOND_DEF_STEREO_COUNT>
0

> <PUBCHEM_BOND_UDEF_STEREO_COUNT>
0

> <PUBCHEM_ISOTOPIC_ATOM_COUNT>
0

> <PUBCHEM_COMPONENT_COUNT>
1

> <PUBCHEM_CACTVS_TAUTO_COUNT>
1

> <PUBCHEM_CONFORMER_ID>
0109713D00000001

> <PUBCHEM_MMFF94_ENERGY>
64.6902

> <PUBCHEM_FEATURE_SELFOVERLAP>
50.788

> <PUBCHEM_SHAPE_FINGERPRINT>
10391435 84 18411146817829901797
10939801 23 18266741277887082038
11135609 12 18411689972917528537
1200032 147 8718011780115288615
12390115 104 8070028857076112417
12717326 69 18269566099564527626
13560911 43 18199185092795985467
13782708 43 18410296926150168624
14040221 10 5906055880243747040
14211702 104 18341608209474433626
14461889 52 18260556649524454714
14659021 117 18341616997436191121
15183329 4 11743834785752579992
15320291 9 18194392514874138407
15510800 12 18410577245691570599
15684389 69 18129377108655243748
16992727 255 8574441945606838954
21223535 225 13398091832384445479
21458453 9 18115038415591347976
21585480 29 18041000613501468198
23428019 142 17346877823933839443
23572383 38 18335699498332309911
2838139 119 10592045743356188217
3383291 50 18338228371830584627
3504750 166 17986684864181357652
397830 11 18334860541491442992
4073 2 18335136544141612024
4144715 1 18115862078692509440
4280585 95 18059583472813230093
437795 139 17703227308843988491
439807 62 17845087381929535259
4403749 210 18261125070770650724
4435113 14 18187637054896650494
4625314 4 18340488958757493484
484989 97 18114169887927775758
49967989 163 17773858862477073290
5104073 3 18115868671434848154
6431902 208 18408885109912196047
6523845 18 13686297972657911381
6695519 79 16877954836281181558
6703917 75 5400512567360237452

> <PUBCHEM_SHAPE_MULTIPOLES>
645.44
20.15
4.42
1.93
20.07
0.86
-0.24
10.81
-5.83
-7.22
-0.01
0.88
0.53
1.04

> <PUBCHEM_SHAPE_SELFOVERLAP>
1383.197

> <PUBCHEM_SHAPE_VOLUME>
359.5

> <PUBCHEM_COORDINATE_TYPE>
2
5
10

$$$$

