11435
  -OEChem-06261205403D

 16 16  0     0  0  0  0  0  0999 V2000
   -0.4974   -2.5713   -0.0003 S   0  0  0  0  0  0  0  0  0  0  0  0
    3.0060    0.9003   -0.0007 O   0  0  0  0  0  0  0  0  0  0  0  0
   -2.6389   -0.4448   -0.0002 O   0  0  0  0  0  0  0  0  0  0  0  0
   -0.3759    0.1723    0.0003 N   0  0  0  0  0  0  0  0  0  0  0  0
    1.6008   -0.9420    0.0001 N   0  0  0  0  0  0  0  0  0  0  0  0
    0.6191    1.2263    0.0006 C   0  0  0  0  0  0  0  0  0  0  0  0
    0.3140   -1.0439    0.0002 C   0  0  0  0  0  0  0  0  0  0  0  0
    1.8858    0.4050    0.0001 C   0  0  0  0  0  0  0  0  0  0  0  0
   -1.7618    0.4193    0.0002 C   0  0  0  0  0  0  0  0  0  0  0  0
   -2.1517    1.8788   -0.0004 C   0  0  0  0  0  0  0  0  0  0  0  0
    0.5386    1.8275    0.9088 H   0  0  0  0  0  0  0  0  0  0  0  0
    0.5384    1.8283   -0.9070 H   0  0  0  0  0  0  0  0  0  0  0  0
   -1.7699    2.3742    0.8959 H   0  0  0  0  0  0  0  0  0  0  0  0
   -3.2427    1.9633    0.0000 H   0  0  0  0  0  0  0  0  0  0  0  0
   -1.7706    2.3733   -0.8975 H   0  0  0  0  0  0  0  0  0  0  0  0
   -1.7624   -2.1348    0.0015 H   0  0  0  0  0  0  0  0  0  0  0  0
  1  7  1  0  0  0  0
  1 16  1  0  0  0  0
  2  8  2  0  0  0  0
  3  9  2  0  0  0  0
  4  6  1  0  0  0  0
  4  7  1  0  0  0  0
  4  9  1  0  0  0  0
  5  7  2  0  0  0  0
  5  8  1  0  0  0  0
  6  8  1  0  0  0  0
  6 11  1  0  0  0  0
  6 12  1  0  0  0  0
  9 10  1  0  0  0  0
 10 13  1  0  0  0  0
 10 14  1  0  0  0  0
 10 15  1  0  0  0  0
M  END
> <PUBCHEM_COMPOUND_CID>
11435

> <PUBCHEM_CONFORMER_RMSD>
0.4

> <PUBCHEM_CONFORMER_DIVERSEORDER>
1

> <PUBCHEM_MMFF94_PARTIAL_CHARGES>
11
1 -0.32
10 0.06
16 0.18
2 -0.57
3 -0.57
4 -0.42
5 -0.66
6 0.36
7 0.65
8 0.72
9 0.57

> <PUBCHEM_EFFECTIVE_ROTOR_COUNT>
1.4

> <PUBCHEM_PHARMACOPHORE_FEATURES>
4
1 2 acceptor
1 3 acceptor
1 5 donor
5 4 5 6 7 8 rings

> <PUBCHEM_HEAVY_ATOM_COUNT>
10

> <PUBCHEM_ATOM_DEF_STEREO_COUNT>
0

> <PUBCHEM_ATOM_UDEF_STEREO_COUNT>
0

> <PUBCHEM_BOND_DEF_STEREO_COUNT>
0

> <PUBCHEM_BOND_UDEF_STEREO_COUNT>
0

> <PUBCHEM_ISOTOPIC_ATOM_COUNT>
0

> <PUBCHEM_COMPONENT_COUNT>
1

> <PUBCHEM_CACTVS_TAUTO_COUNT>
3

> <PUBCHEM_CONFORMER_ID>
00002CAB00000001

> <PUBCHEM_MMFF94_ENERGY>
22.0441

> <PUBCHEM_FEATURE_SELFOVERLAP>
20.297

> <PUBCHEM_SHAPE_FINGERPRINT>
12897270 3 18410577305467321085
14325111 11 18410574006826988036
16945 1 18338516322510110502
18185500 45 17832707151003052475
20871998 184 18045211644267108174
21040471 1 18410573981114946690
23552423 10 18122342647206730975
23552449 1 17977666411700279298
241688 4 16320623730573897939
2748010 2 18339640156432169383
5084963 1 18186519903774230097

> <PUBCHEM_SHAPE_MULTIPOLES>
187.94
3.39
2.31
0.59
0.23
1.35
0
-1.59
0
-0.56
0
-0.02
0.02
0

> <PUBCHEM_SHAPE_SELFOVERLAP>
374.957

> <PUBCHEM_SHAPE_VOLUME>
114.3

> <PUBCHEM_COORDINATE_TYPE>
2
5
10

$$$$

