585206
  -OEChem-06241222452D

 64 64  0     1  0  0  0  0  0999 V2000
    3.0000   -3.5000    0.0000 Si  0  0  0  0  0  0  0  0  0  0  0  0
    3.0000   -2.5000    0.0000 O   0  0  0  0  0  0  0  0  0  0  0  0
    3.8660   -2.0000    0.0000 C   0  0  3  0  0  0  0  0  0  0  0  0
    3.8660   -1.0000    0.0000 C   0  0  0  0  0  0  0  0  0  0  0  0
    4.7320   -0.5000    0.0000 C   0  0  0  0  0  0  0  0  0  0  0  0
    4.7320    0.5000    0.0000 C   0  0  0  0  0  0  0  0  0  0  0  0
    5.5981    1.0000    0.0000 C   0  0  0  0  0  0  0  0  0  0  0  0
    5.5981    2.0000    0.0000 C   0  0  0  0  0  0  0  0  0  0  0  0
    4.7320   -2.5000    0.0000 C   0  0  0  0  0  0  0  0  0  0  0  0
    6.4641    2.5000    0.0000 C   0  0  0  0  0  0  0  0  0  0  0  0
    6.4641    3.5000    0.0000 C   0  0  0  0  0  0  0  0  0  0  0  0
    7.3301    4.0000    0.0000 C   0  0  0  0  0  0  0  0  0  0  0  0
    3.0000   -4.5000    0.0000 C   0  0  0  0  0  0  0  0  0  0  0  0
    4.0000   -3.5000    0.0000 C   0  0  0  0  0  0  0  0  0  0  0  0
    2.0000   -3.5000    0.0000 C   0  0  0  0  0  0  0  0  0  0  0  0
    5.5981   -2.0000    0.0000 C   0  0  0  0  0  0  0  0  0  0  0  0
    7.3301    5.0000    0.0000 C   0  0  0  0  0  0  0  0  0  0  0  0
    8.1962    5.5000    0.0000 C   0  0  0  0  0  0  0  0  0  0  0  0
    2.1340   -5.0000    0.0000 C   0  0  0  0  0  0  0  0  0  0  0  0
    3.8660   -5.0000    0.0000 C   0  0  0  0  0  0  0  0  0  0  0  0
    8.1962    6.5000    0.0000 C   0  0  0  0  0  0  0  0  0  0  0  0
    2.1340   -6.0000    0.0000 C   0  0  0  0  0  0  0  0  0  0  0  0
    3.8660   -6.0000    0.0000 C   0  0  0  0  0  0  0  0  0  0  0  0
    3.0000   -6.5000    0.0000 C   0  0  0  0  0  0  0  0  0  0  0  0
    3.8660   -2.6200    0.0000 H   0  0  0  0  0  0  0  0  0  0  0  0
    3.6540   -0.4174    0.0000 H   0  0  0  0  0  0  0  0  0  0  0  0
    3.2554   -1.1077    0.0000 H   0  0  0  0  0  0  0  0  0  0  0  0
    4.9441   -1.0826    0.0000 H   0  0  0  0  0  0  0  0  0  0  0  0
    5.3426   -0.3923    0.0000 H   0  0  0  0  0  0  0  0  0  0  0  0
    4.5200    1.0826    0.0000 H   0  0  0  0  0  0  0  0  0  0  0  0
    4.1215    0.3923    0.0000 H   0  0  0  0  0  0  0  0  0  0  0  0
    5.8101    0.4174    0.0000 H   0  0  0  0  0  0  0  0  0  0  0  0
    6.2087    1.1077    0.0000 H   0  0  0  0  0  0  0  0  0  0  0  0
    5.3860    2.5826    0.0000 H   0  0  0  0  0  0  0  0  0  0  0  0
    4.9875    1.8923    0.0000 H   0  0  0  0  0  0  0  0  0  0  0  0
    4.3335   -2.9750    0.0000 H   0  0  0  0  0  0  0  0  0  0  0  0
    5.1306   -2.9750    0.0000 H   0  0  0  0  0  0  0  0  0  0  0  0
    6.6762    1.9174    0.0000 H   0  0  0  0  0  0  0  0  0  0  0  0
    7.0747    2.6077    0.0000 H   0  0  0  0  0  0  0  0  0  0  0  0
    6.2520    4.0826    0.0000 H   0  0  0  0  0  0  0  0  0  0  0  0
    5.8535    3.3923    0.0000 H   0  0  0  0  0  0  0  0  0  0  0  0
    7.5422    3.4174    0.0000 H   0  0  0  0  0  0  0  0  0  0  0  0
    7.9407    4.1077    0.0000 H   0  0  0  0  0  0  0  0  0  0  0  0
    4.0000   -4.1200    0.0000 H   0  0  0  0  0  0  0  0  0  0  0  0
    4.6200   -3.5000    0.0000 H   0  0  0  0  0  0  0  0  0  0  0  0
    4.0000   -2.8800    0.0000 H   0  0  0  0  0  0  0  0  0  0  0  0
    2.0000   -2.8800    0.0000 H   0  0  0  0  0  0  0  0  0  0  0  0
    1.3800   -3.5000    0.0000 H   0  0  0  0  0  0  0  0  0  0  0  0
    2.0000   -4.1200    0.0000 H   0  0  0  0  0  0  0  0  0  0  0  0
    5.9081   -2.5369    0.0000 H   0  0  0  0  0  0  0  0  0  0  0  0
    6.1350   -1.6900    0.0000 H   0  0  0  0  0  0  0  0  0  0  0  0
    5.2881   -1.4631    0.0000 H   0  0  0  0  0  0  0  0  0  0  0  0
    7.1181    5.5826    0.0000 H   0  0  0  0  0  0  0  0  0  0  0  0
    6.7196    4.8923    0.0000 H   0  0  0  0  0  0  0  0  0  0  0  0
    8.4082    4.9174    0.0000 H   0  0  0  0  0  0  0  0  0  0  0  0
    8.8067    5.6077    0.0000 H   0  0  0  0  0  0  0  0  0  0  0  0
    1.5970   -4.6900    0.0000 H   0  0  0  0  0  0  0  0  0  0  0  0
    4.4030   -4.6900    0.0000 H   0  0  0  0  0  0  0  0  0  0  0  0
    8.8162    6.5000    0.0000 H   0  0  0  0  0  0  0  0  0  0  0  0
    8.1962    7.1200    0.0000 H   0  0  0  0  0  0  0  0  0  0  0  0
    7.5762    6.5000    0.0000 H   0  0  0  0  0  0  0  0  0  0  0  0
    1.5970   -6.3100    0.0000 H   0  0  0  0  0  0  0  0  0  0  0  0
    4.4030   -6.3100    0.0000 H   0  0  0  0  0  0  0  0  0  0  0  0
    3.0000   -7.1200    0.0000 H   0  0  0  0  0  0  0  0  0  0  0  0
  1  2  1  0  0  0  0
  1 13  1  0  0  0  0
  1 14  1  0  0  0  0
  1 15  1  0  0  0  0
  2  3  1  0  0  0  0
  3  4  1  0  0  0  0
  3  9  1  0  0  0  0
  3 25  1  0  0  0  0
  4  5  1  0  0  0  0
  4 26  1  0  0  0  0
  4 27  1  0  0  0  0
  5  6  1  0  0  0  0
  5 28  1  0  0  0  0
  5 29  1  0  0  0  0
  6  7  1  0  0  0  0
  6 30  1  0  0  0  0
  6 31  1  0  0  0  0
  7  8  1  0  0  0  0
  7 32  1  0  0  0  0
  7 33  1  0  0  0  0
  8 10  1  0  0  0  0
  8 34  1  0  0  0  0
  8 35  1  0  0  0  0
  9 16  1  0  0  0  0
  9 36  1  0  0  0  0
  9 37  1  0  0  0  0
 10 11  1  0  0  0  0
 10 38  1  0  0  0  0
 10 39  1  0  0  0  0
 11 12  1  0  0  0  0
 11 40  1  0  0  0  0
 11 41  1  0  0  0  0
 12 17  1  0  0  0  0
 12 42  1  0  0  0  0
 12 43  1  0  0  0  0
 13 19  2  0  0  0  0
 13 20  1  0  0  0  0
 14 44  1  0  0  0  0
 14 45  1  0  0  0  0
 14 46  1  0  0  0  0
 15 47  1  0  0  0  0
 15 48  1  0  0  0  0
 15 49  1  0  0  0  0
 16 50  1  0  0  0  0
 16 51  1  0  0  0  0
 16 52  1  0  0  0  0
 17 18  1  0  0  0  0
 17 53  1  0  0  0  0
 17 54  1  0  0  0  0
 18 21  1  0  0  0  0
 18 55  1  0  0  0  0
 18 56  1  0  0  0  0
 19 22  1  0  0  0  0
 19 57  1  0  0  0  0
 20 23  2  0  0  0  0
 20 58  1  0  0  0  0
 21 59  1  0  0  0  0
 21 60  1  0  0  0  0
 21 61  1  0  0  0  0
 22 24  2  0  0  0  0
 22 62  1  0  0  0  0
 23 24  1  0  0  0  0
 23 63  1  0  0  0  0
 24 64  1  0  0  0  0
M  END
> <PUBCHEM_COMPOUND_CID>
585206

> <PUBCHEM_COMPOUND_CANONICALIZED>
1

> <PUBCHEM_CACTVS_COMPLEXITY>
284

> <PUBCHEM_CACTVS_HBOND_ACCEPTOR>
1

> <PUBCHEM_CACTVS_HBOND_DONOR>
0

> <PUBCHEM_CACTVS_ROTATABLE_BOND>
14

> <PUBCHEM_CACTVS_SUBSKEYS>
AAADcfB4IAgAAAAAAAAAAAAAAAAAAAAAAAAwAAAAAAAAAAABAAAAGhAAAEAACBSgsAJyAIAAAAGAACBCAAACAAAgAAAIiAAAAIgIICKAERCAIAAkgAAIiAeAwKAAAAAAAAAAAAAAAAAAAAAAAAAAAAAAAA==

> <PUBCHEM_IUPAC_OPENEYE_NAME>
1-ethyldodecoxy-dimethyl-phenyl-silane

> <PUBCHEM_IUPAC_CAS_NAME>
dimethyl-phenyl-tetradecan-3-yloxysilane

> <PUBCHEM_IUPAC_NAME>
dimethyl-phenyl-tetradecan-3-yloxysilane

> <PUBCHEM_IUPAC_SYSTEMATIC_NAME>
dimethyl-phenyl-tetradecan-3-yloxy-silane

> <PUBCHEM_IUPAC_TRADITIONAL_NAME>
1-ethyldodecoxy-dimethyl-phenyl-silane

> <PUBCHEM_IUPAC_INCHI>
InChI=1S/C22H40OSi/c1-5-7-8-9-10-11-12-13-15-18-21(6-2)23-24(3,4)22-19-16-14-17-20-22/h14,16-17,19-21H,5-13,15,18H2,1-4H3

> <PUBCHEM_IUPAC_INCHIKEY>
BLSKZXCFUHDCFV-UHFFFAOYSA-N

> <PUBCHEM_EXACT_MASS>
348.284842

> <PUBCHEM_MOLECULAR_FORMULA>
C22H40OSi

> <PUBCHEM_MOLECULAR_WEIGHT>
348.6379

> <PUBCHEM_OPENEYE_CAN_SMILES>
CCCCCCCCCCCC(CC)O[Si](C)(C)C1=CC=CC=C1

> <PUBCHEM_OPENEYE_ISO_SMILES>
CCCCCCCCCCCC(CC)O[Si](C)(C)C1=CC=CC=C1

> <PUBCHEM_CACTVS_TPSA>
9.2

> <PUBCHEM_MONOISOTOPIC_WEIGHT>
348.284842

> <PUBCHEM_TOTAL_CHARGE>
0

> <PUBCHEM_HEAVY_ATOM_COUNT>
24

> <PUBCHEM_ATOM_DEF_STEREO_COUNT>
0

> <PUBCHEM_ATOM_UDEF_STEREO_COUNT>
1

> <PUBCHEM_BOND_DEF_STEREO_COUNT>
0

> <PUBCHEM_BOND_UDEF_STEREO_COUNT>
0

> <PUBCHEM_ISOTOPIC_ATOM_COUNT>
0

> <PUBCHEM_COMPONENT_COUNT>
1

> <PUBCHEM_CACTVS_TAUTO_COUNT>
1

> <PUBCHEM_COORDINATE_TYPE>
1
5
255

> <PUBCHEM_BONDANNOTATIONS>
13  19  8
13  20  8
19  22  8
20  23  8
22  24  8
23  24  8
3  9  3

$$$$

