47205049
  -OEChem-06241222573D

 26 27  0     0  0  0  0  0  0999 V2000
   -5.7883    1.2411    0.3149 Br  0  0  0  0  0  0  0  0  0  0  0  0
    0.2580   -1.9726    0.4893 O   0  0  0  0  0  0  0  0  0  0  0  0
    0.7625   -0.3445   -1.0828 N   0  0  0  0  0  0  0  0  0  0  0  0
    3.4723    1.1832   -0.4974 N   0  0  0  0  0  0  0  0  0  0  0  0
    4.3413    1.5844    0.4460 N   0  0  0  0  0  0  0  0  0  0  0  0
    2.1237   -0.7641   -1.3280 C   0  0  0  0  0  0  0  0  0  0  0  0
    3.0901   -0.1205   -0.3760 C   0  0  0  0  0  0  0  0  0  0  0  0
   -1.4437   -0.4566   -0.0621 C   0  0  0  0  0  0  0  0  0  0  0  0
   -0.0934   -0.9840   -0.1786 C   0  0  0  0  0  0  0  0  0  0  0  0
    3.7557   -0.6061    0.7229 C   0  0  0  0  0  0  0  0  0  0  0  0
   -2.4875   -1.2932    0.3332 C   0  0  0  0  0  0  0  0  0  0  0  0
   -1.6951    0.8860   -0.3452 C   0  0  0  0  0  0  0  0  0  0  0  0
    4.5107    0.4871    1.1886 C   0  0  0  0  0  0  0  0  0  0  0  0
   -3.7826   -0.7874    0.4455 C   0  0  0  0  0  0  0  0  0  0  0  0
   -2.9899    1.3918   -0.2329 C   0  0  0  0  0  0  0  0  0  0  0  0
   -4.0337    0.5553    0.1624 C   0  0  0  0  0  0  0  0  0  0  0  0
    2.3725   -0.4926   -2.3596 H   0  0  0  0  0  0  0  0  0  0  0  0
    2.1836   -1.8547   -1.2424 H   0  0  0  0  0  0  0  0  0  0  0  0
    0.4235    0.4269   -1.6474 H   0  0  0  0  0  0  0  0  0  0  0  0
    3.7021   -1.6053    1.1296 H   0  0  0  0  0  0  0  0  0  0  0  0
    3.1803    1.8552   -1.1961 H   0  0  0  0  0  0  0  0  0  0  0  0
   -2.3135   -2.3431    0.5541 H   0  0  0  0  0  0  0  0  0  0  0  0
   -0.9077    1.5797   -0.6245 H   0  0  0  0  0  0  0  0  0  0  0  0
    5.1769    0.5297    2.0382 H   0  0  0  0  0  0  0  0  0  0  0  0
   -4.5849   -1.4527    0.7539 H   0  0  0  0  0  0  0  0  0  0  0  0
   -3.1681    2.4419   -0.4501 H   0  0  0  0  0  0  0  0  0  0  0  0
  1 16  1  0  0  0  0
  2  9  2  0  0  0  0
  3  6  1  0  0  0  0
  3  9  1  0  0  0  0
  3 19  1  0  0  0  0
  4  5  1  0  0  0  0
  4  7  1  0  0  0  0
  4 21  1  0  0  0  0
  5 13  2  0  0  0  0
  6  7  1  0  0  0  0
  6 17  1  0  0  0  0
  6 18  1  0  0  0  0
  7 10  2  0  0  0  0
  8  9  1  0  0  0  0
  8 11  2  0  0  0  0
  8 12  1  0  0  0  0
 10 13  1  0  0  0  0
 10 20  1  0  0  0  0
 11 14  1  0  0  0  0
 11 22  1  0  0  0  0
 12 15  2  0  0  0  0
 12 23  1  0  0  0  0
 13 24  1  0  0  0  0
 14 16  2  0  0  0  0
 14 25  1  0  0  0  0
 15 16  1  0  0  0  0
 15 26  1  0  0  0  0
M  END
> <PUBCHEM_COMPOUND_CID>
47205049

> <PUBCHEM_CONFORMER_RMSD>
0.6

> <PUBCHEM_CONFORMER_DIVERSEORDER>
1
12
25
6
21
26
20
2
7
23
13
22
9
24
18
19
15
3
10
16
11
17
4
5
8
14

> <PUBCHEM_MMFF94_PARTIAL_CHARGES>
24
1 -0.11
10 -0.15
11 -0.15
12 -0.15
13 0.14
14 -0.15
15 -0.15
16 0.11
19 0.37
2 -0.57
20 0.15
21 0.27
22 0.15
23 0.15
24 0.15
25 0.15
26 0.15
3 -0.73
4 0.3
5 -0.71
6 0.48
7 -0.33
8 0.09
9 0.54

> <PUBCHEM_EFFECTIVE_ROTOR_COUNT>
4

> <PUBCHEM_PHARMACOPHORE_FEATURES>
7
1 1 hydrophobe
1 2 acceptor
1 3 donor
1 4 donor
1 5 acceptor
5 4 5 7 10 13 rings
6 8 11 12 14 15 16 rings

> <PUBCHEM_HEAVY_ATOM_COUNT>
16

> <PUBCHEM_ATOM_DEF_STEREO_COUNT>
0

> <PUBCHEM_ATOM_UDEF_STEREO_COUNT>
0

> <PUBCHEM_BOND_DEF_STEREO_COUNT>
0

> <PUBCHEM_BOND_UDEF_STEREO_COUNT>
0

> <PUBCHEM_ISOTOPIC_ATOM_COUNT>
0

> <PUBCHEM_COMPONENT_COUNT>
1

> <PUBCHEM_CACTVS_TAUTO_COUNT>
4

> <PUBCHEM_CONFORMER_ID>
02D04AB900000001

> <PUBCHEM_MMFF94_ENERGY>
27.0523

> <PUBCHEM_FEATURE_SELFOVERLAP>
35.52

> <PUBCHEM_SHAPE_FINGERPRINT>
10014705 185 18333732425349502261
11128504 68 5112005053741978104
11132069 177 18343857831950378319
11543360 7 16153430558219941623
12251169 10 18130792209762339118
12403259 415 18200876287206687820
12596602 18 16988560165321712480
12670543 26 8214146206084670249
12670546 177 5833986170065905952
12788726 201 17126460776365409010
13214271 11 18334576815767045223
13533116 47 17916587677605389387
13675066 3 17203610406166224311
13955234 65 18117268379807910019
14366163 111 15068626006356069827
15375358 24 18260826020950814431
17834072 33 16732991925098415477
17959699 21 17749946790769312457
18186145 218 18041544932092058726
18915474 69 7637399644544276008
19050596 39 18060700580526144931
20281475 54 9943540617066585894
20388580 30 8646479739223098954
20432913 95 14908186347768046440
20645477 56 18410848897982662119
20645477 70 16951118603245522350
20871999 31 16660660531174387775
21150785 3 17749685069154519013
22926399 37 16877660167100880779
23402539 116 18410019814533351775
23403322 49 10447936069949957041
23557571 272 18115290194927018015
23559900 14 18338781408103006710
23590187 173 17749108906889495728
2871803 45 8214145153116432572
2916195 48 18334295392509543457
34797466 226 16371004075414532461
351380 180 18408889537764664360
4047638 21 18187643639133678046
4072396 5 17775005721649324095
42 15 17561084713357901626
4340502 62 17274813701914275747
465052 167 12895065240980009832
5104073 3 18128245887146180737
5374978 207 18272650168589910821
548570 60 18259705605379813016
573450 72 17918276428828740883
633830 44 18408041818705568502
7364860 26 18194963178113445807
90316 7 17274824687691974509
94968 8 10447927274379031356
960060 61 8358251557920650488

> <PUBCHEM_SHAPE_MULTIPOLES>
314.4
11.43
1.61
0.99
1.95
0.02
-0.06
-5.39
2.78
0.17
0.14
-0.79
0.06
0.43

> <PUBCHEM_SHAPE_SELFOVERLAP>
655.284

> <PUBCHEM_SHAPE_VOLUME>
183

> <PUBCHEM_COORDINATE_TYPE>
2
5
10

$$$$

