17395689
  -OEChem-06241222512D

 45 46  0     1  0  0  0  0  0999 V2000
    6.6381   -0.7068    0.0000 O   0  0  0  0  0  0  0  0  0  0  0  0
    7.0539   -2.6631    0.0000 O   0  0  0  0  0  0  0  0  0  0  0  0
    7.1733    0.9405    0.0000 O   0  0  0  0  0  0  0  0  0  0  0  0
    2.5878    2.2359    0.0000 O   0  0  0  0  0  0  0  0  0  0  0  0
    3.9890    3.2540    0.0000 O   0  0  0  0  0  0  0  0  0  0  0  0
    8.7481   -2.3030    0.0000 N   0  0  0  0  0  0  0  0  0  0  0  0
    4.6701   -0.0074    0.0000 N   0  0  0  0  0  0  0  0  0  0  0  0
   10.3661   -2.3030    0.0000 C   0  0  0  0  0  0  0  0  0  0  0  0
   10.0571   -3.2540    0.0000 C   0  0  0  0  0  0  0  0  0  0  0  0
    9.5571   -1.7152    0.0000 C   0  0  0  0  0  0  0  0  0  0  0  0
    9.0571   -3.2540    0.0000 C   0  0  0  0  0  0  0  0  0  0  0  0
    7.7970   -1.9939    0.0000 C   0  0  0  0  0  0  0  0  0  0  0  0
    7.5891   -1.0158    0.0000 C   0  0  3  0  0  0  0  0  0  0  0  0
    8.3323   -0.3467    0.0000 C   0  0  0  0  0  0  0  0  0  0  0  0
    5.4791    0.5804    0.0000 C   0  0  0  0  0  0  0  0  0  0  0  0
    5.1701    1.5314    0.0000 C   0  0  0  0  0  0  0  0  0  0  0  0
    4.1701    1.5314    0.0000 C   0  0  0  0  0  0  0  0  0  0  0  0
    3.8611    0.5804    0.0000 C   0  0  0  0  0  0  0  0  0  0  0  0
    6.4302    0.2714    0.0000 C   0  0  0  0  0  0  0  0  0  0  0  0
    5.7579    2.3405    0.0000 C   0  0  0  0  0  0  0  0  0  0  0  0
    2.9100    0.2714    0.0000 C   0  0  0  0  0  0  0  0  0  0  0  0
    3.5823    2.3405    0.0000 C   0  0  0  0  0  0  0  0  0  0  0  0
    2.0000    3.0450    0.0000 C   0  0  0  0  0  0  0  0  0  0  0  0
    9.9923   -3.8706    0.0000 H   0  0  0  0  0  0  0  0  0  0  0  0
   10.6636   -3.3829    0.0000 H   0  0  0  0  0  0  0  0  0  0  0  0
   10.9325   -2.5551    0.0000 H   0  0  0  0  0  0  0  0  0  0  0  0
   10.6761   -1.7660    0.0000 H   0  0  0  0  0  0  0  0  0  0  0  0
    8.4507   -3.3829    0.0000 H   0  0  0  0  0  0  0  0  0  0  0  0
    9.1219   -3.8706    0.0000 H   0  0  0  0  0  0  0  0  0  0  0  0
    9.9720   -1.2544    0.0000 H   0  0  0  0  0  0  0  0  0  0  0  0
    9.1423   -1.2544    0.0000 H   0  0  0  0  0  0  0  0  0  0  0  0
    7.4602   -0.4093    0.0000 H   0  0  0  0  0  0  0  0  0  0  0  0
    8.7471   -0.8074    0.0000 H   0  0  0  0  0  0  0  0  0  0  0  0
    8.7930    0.0682    0.0000 H   0  0  0  0  0  0  0  0  0  0  0  0
    7.9174    0.1141    0.0000 H   0  0  0  0  0  0  0  0  0  0  0  0
    4.6701   -0.6274    0.0000 H   0  0  0  0  0  0  0  0  0  0  0  0
    6.2595    1.9760    0.0000 H   0  0  0  0  0  0  0  0  0  0  0  0
    6.1223    2.8421    0.0000 H   0  0  0  0  0  0  0  0  0  0  0  0
    5.2563    2.7049    0.0000 H   0  0  0  0  0  0  0  0  0  0  0  0
    2.7184    0.8610    0.0000 H   0  0  0  0  0  0  0  0  0  0  0  0
    2.3204    0.0798    0.0000 H   0  0  0  0  0  0  0  0  0  0  0  0
    3.1016   -0.3183    0.0000 H   0  0  0  0  0  0  0  0  0  0  0  0
    2.5016    3.4094    0.0000 H   0  0  0  0  0  0  0  0  0  0  0  0
    1.6356    3.5465    0.0000 H   0  0  0  0  0  0  0  0  0  0  0  0
    1.4984    2.6805    0.0000 H   0  0  0  0  0  0  0  0  0  0  0  0
  1 13  1  0  0  0  0
  1 19  1  0  0  0  0
  2 12  2  0  0  0  0
  3 19  2  0  0  0  0
  4 22  1  0  0  0  0
  4 23  1  0  0  0  0
  5 22  2  0  0  0  0
  6 10  1  0  0  0  0
  6 11  1  0  0  0  0
  6 12  1  0  0  0  0
  7 15  1  0  0  0  0
  7 18  1  0  0  0  0
  7 36  1  0  0  0  0
  8  9  1  0  0  0  0
  8 10  1  0  0  0  0
  8 26  1  0  0  0  0
  8 27  1  0  0  0  0
  9 11  1  0  0  0  0
  9 24  1  0  0  0  0
  9 25  1  0  0  0  0
 10 30  1  0  0  0  0
 10 31  1  0  0  0  0
 11 28  1  0  0  0  0
 11 29  1  0  0  0  0
 12 13  1  0  0  0  0
 13 14  1  0  0  0  0
 13 32  1  0  0  0  0
 14 33  1  0  0  0  0
 14 34  1  0  0  0  0
 14 35  1  0  0  0  0
 15 16  2  0  0  0  0
 15 19  1  0  0  0  0
 16 17  1  0  0  0  0
 16 20  1  0  0  0  0
 17 18  2  0  0  0  0
 17 22  1  0  0  0  0
 18 21  1  0  0  0  0
 20 37  1  0  0  0  0
 20 38  1  0  0  0  0
 20 39  1  0  0  0  0
 21 40  1  0  0  0  0
 21 41  1  0  0  0  0
 21 42  1  0  0  0  0
 23 43  1  0  0  0  0
 23 44  1  0  0  0  0
 23 45  1  0  0  0  0
M  END
> <PUBCHEM_COMPOUND_CID>
17395689

> <PUBCHEM_COMPOUND_CANONICALIZED>
1

> <PUBCHEM_CACTVS_COMPLEXITY>
475

> <PUBCHEM_CACTVS_HBOND_ACCEPTOR>
5

> <PUBCHEM_CACTVS_HBOND_DONOR>
1

> <PUBCHEM_CACTVS_ROTATABLE_BOND>
6

> <PUBCHEM_CACTVS_SUBSKEYS>
AAADceB7OAAAAAAAAAAAAAAAAAAAAWLAAAAAAAAAAAAAAAABgAAAHgAQAAAADBzhngYCiJPJlACoAwXwXAaCgCAnACAAmSH4TNgKJnrAtL2HEYhm1gHY6Ue8fwkegAAAAAAAAAAAAAAAAAAAAAAAAAAAAA==

> <PUBCHEM_IUPAC_OPENEYE_NAME>
O4-methyl O2-(1-methyl-2-oxo-2-pyrrolidin-1-yl-ethyl) 3,5-dimethyl-1H-pyrrole-2,4-dicarboxylate

> <PUBCHEM_IUPAC_CAS_NAME>
3,5-dimethyl-1H-pyrrole-2,4-dicarboxylic acid O4-methyl ester O2-[1-oxo-1-(1-pyrrolidinyl)propan-2-yl] ester

> <PUBCHEM_IUPAC_NAME>
4-O-methyl 2-O-(1-oxo-1-pyrrolidin-1-ylpropan-2-yl) 3,5-dimethyl-1H-pyrrole-2,4-dicarboxylate

> <PUBCHEM_IUPAC_SYSTEMATIC_NAME>
O4-methyl O2-(1-oxidanylidene-1-pyrrolidin-1-yl-propan-2-yl) 3,5-dimethyl-1H-pyrrole-2,4-dicarboxylate

> <PUBCHEM_IUPAC_TRADITIONAL_NAME>
3,5-dimethyl-1H-pyrrole-2,4-dicarboxylic acid O2-(2-keto-1-methyl-2-pyrrolidino-ethyl) ester O4-methyl ester

> <PUBCHEM_IUPAC_INCHI>
InChI=1S/C16H22N2O5/c1-9-12(15(20)22-4)10(2)17-13(9)16(21)23-11(3)14(19)18-7-5-6-8-18/h11,17H,5-8H2,1-4H3

> <PUBCHEM_IUPAC_INCHIKEY>
VYKVUAXEHNBQAC-UHFFFAOYSA-N

> <PUBCHEM_XLOGP3_AA>
1.9

> <PUBCHEM_EXACT_MASS>
322.152872

> <PUBCHEM_MOLECULAR_FORMULA>
C16H22N2O5

> <PUBCHEM_MOLECULAR_WEIGHT>
322.35628

> <PUBCHEM_OPENEYE_CAN_SMILES>
CC1=C(NC(=C1C(=O)OC)C)C(=O)OC(C)C(=O)N2CCCC2

> <PUBCHEM_OPENEYE_ISO_SMILES>
CC1=C(NC(=C1C(=O)OC)C)C(=O)OC(C)C(=O)N2CCCC2

> <PUBCHEM_CACTVS_TPSA>
88.7

> <PUBCHEM_MONOISOTOPIC_WEIGHT>
322.152872

> <PUBCHEM_TOTAL_CHARGE>
0

> <PUBCHEM_HEAVY_ATOM_COUNT>
23

> <PUBCHEM_ATOM_DEF_STEREO_COUNT>
0

> <PUBCHEM_ATOM_UDEF_STEREO_COUNT>
1

> <PUBCHEM_BOND_DEF_STEREO_COUNT>
0

> <PUBCHEM_BOND_UDEF_STEREO_COUNT>
0

> <PUBCHEM_ISOTOPIC_ATOM_COUNT>
0

> <PUBCHEM_COMPONENT_COUNT>
1

> <PUBCHEM_CACTVS_TAUTO_COUNT>
10

> <PUBCHEM_COORDINATE_TYPE>
1
5
255

> <PUBCHEM_BONDANNOTATIONS>
13  14  3
15  16  8
16  17  8
17  18  8
7  15  8
7  18  8

$$$$

