8690
  -OEChem-06261203003D

 26 27  0     0  0  0  0  0  0999 V2000
    0.1137    0.4311    0.4879 O   0  0  0  0  0  0  0  0  0  0  0  0
    4.3459   -1.7480    0.8458 O   0  0  0  0  0  0  0  0  0  0  0  0
   -0.2002   -0.6592   -1.5488 O   0  0  0  0  0  0  0  0  0  0  0  0
   -2.0734   -0.0899   -0.1875 C   0  0  0  0  0  0  0  0  0  0  0  0
    1.4885    0.4085    0.2381 C   0  0  0  0  0  0  0  0  0  0  0  0
    2.2224   -0.6717    0.6753 C   0  0  0  0  0  0  0  0  0  0  0  0
   -2.9381   -1.0850   -0.6435 C   0  0  0  0  0  0  0  0  0  0  0  0
   -2.5664    0.9627    0.5838 C   0  0  0  0  0  0  0  0  0  0  0  0
    2.0551    1.4675   -0.4353 C   0  0  0  0  0  0  0  0  0  0  0  0
   -0.6581   -0.1501   -0.5158 C   0  0  0  0  0  0  0  0  0  0  0  0
    3.5946   -0.6937    0.4257 C   0  0  0  0  0  0  0  0  0  0  0  0
    3.4273    1.4453   -0.6849 C   0  0  0  0  0  0  0  0  0  0  0  0
    4.1970    0.3648   -0.2544 C   0  0  0  0  0  0  0  0  0  0  0  0
   -4.2958   -1.0274   -0.3284 C   0  0  0  0  0  0  0  0  0  0  0  0
   -3.9240    1.0201    0.8990 C   0  0  0  0  0  0  0  0  0  0  0  0
   -4.7886    0.0250    0.4429 C   0  0  0  0  0  0  0  0  0  0  0  0
    1.7476   -1.4923    1.2047 H   0  0  0  0  0  0  0  0  0  0  0  0
   -2.5700   -1.9136   -1.2429 H   0  0  0  0  0  0  0  0  0  0  0  0
   -1.9197    1.7593    0.9423 H   0  0  0  0  0  0  0  0  0  0  0  0
    1.4559    2.3086   -0.7695 H   0  0  0  0  0  0  0  0  0  0  0  0
    3.8962    2.2696   -1.2143 H   0  0  0  0  0  0  0  0  0  0  0  0
    5.2650    0.3596   -0.4551 H   0  0  0  0  0  0  0  0  0  0  0  0
   -4.9691   -1.8024   -0.6830 H   0  0  0  0  0  0  0  0  0  0  0  0
   -4.3088    1.8411    1.4970 H   0  0  0  0  0  0  0  0  0  0  0  0
   -5.8457    0.0700    0.6878 H   0  0  0  0  0  0  0  0  0  0  0  0
    5.2719   -1.5973    0.5888 H   0  0  0  0  0  0  0  0  0  0  0  0
  1  5  1  0  0  0  0
  1 10  1  0  0  0  0
  2 11  1  0  0  0  0
  2 26  1  0  0  0  0
  3 10  2  0  0  0  0
  4  7  2  0  0  0  0
  4  8  1  0  0  0  0
  4 10  1  0  0  0  0
  5  6  1  0  0  0  0
  5  9  2  0  0  0  0
  6 11  2  0  0  0  0
  6 17  1  0  0  0  0
  7 14  1  0  0  0  0
  7 18  1  0  0  0  0
  8 15  2  0  0  0  0
  8 19  1  0  0  0  0
  9 12  1  0  0  0  0
  9 20  1  0  0  0  0
 11 13  1  0  0  0  0
 12 13  2  0  0  0  0
 12 21  1  0  0  0  0
 13 22  1  0  0  0  0
 14 16  2  0  0  0  0
 14 23  1  0  0  0  0
 15 16  1  0  0  0  0
 15 24  1  0  0  0  0
 16 25  1  0  0  0  0
M  END
> <PUBCHEM_COMPOUND_CID>
8690

> <PUBCHEM_CONFORMER_RMSD>
0.6

> <PUBCHEM_CONFORMER_DIVERSEORDER>
1
43
36
18
42
41
9
45
38
10
32
3
35
8
30
19
47
2
29
34
4
28
23
46
6
12
31
11
44
5
26
7
22
17
27
25
40
16
24
37
15
21
14
33
39
20
13

> <PUBCHEM_MMFF94_PARTIAL_CHARGES>
26
1 -0.23
10 0.63
11 0.08
12 -0.15
13 -0.15
14 -0.15
15 -0.15
16 -0.15
17 0.15
18 0.15
19 0.15
2 -0.53
20 0.15
21 0.15
22 0.15
23 0.15
24 0.15
25 0.15
26 0.45
3 -0.57
4 0.09
5 0.08
6 -0.15
7 -0.15
8 -0.15
9 -0.15

> <PUBCHEM_EFFECTIVE_ROTOR_COUNT>
3

> <PUBCHEM_PHARMACOPHORE_FEATURES>
4
1 2 donor
1 3 acceptor
6 4 7 8 14 15 16 rings
6 5 6 9 11 12 13 rings

> <PUBCHEM_HEAVY_ATOM_COUNT>
16

> <PUBCHEM_ATOM_DEF_STEREO_COUNT>
0

> <PUBCHEM_ATOM_UDEF_STEREO_COUNT>
0

> <PUBCHEM_BOND_DEF_STEREO_COUNT>
0

> <PUBCHEM_BOND_UDEF_STEREO_COUNT>
0

> <PUBCHEM_ISOTOPIC_ATOM_COUNT>
0

> <PUBCHEM_COMPONENT_COUNT>
1

> <PUBCHEM_CACTVS_TAUTO_COUNT>
3

> <PUBCHEM_CONFORMER_ID>
000021F200000001

> <PUBCHEM_MMFF94_ENERGY>
52.3185

> <PUBCHEM_FEATURE_SELFOVERLAP>
20.297

> <PUBCHEM_SHAPE_FINGERPRINT>
10062212 137 18187088347291665799
10616163 171 18263361399948930359
10912923 1 18335699421096303153
11471102 20 17988925557246005968
11615757 297 18201723946305169905
12107183 9 17834675272384576905
12236239 1 18334573538638484800
12251169 10 18335420179623847079
12346177 29 16009041544525274125
12670546 56 18408610248873709257
13167823 11 18411699876700740707
13296908 3 15698004028537594925
13533116 47 18342459231643183131
13675066 3 17312824887526428054
13760787 19 18408881802407303575
13760787 5 18413110545976937557
14252887 29 16774078462229695172
14386348 63 15769775749510142257
15375358 24 15123515787373036625
17834072 33 18341331102278704191
1813 80 18059003021042021342
18186145 218 17418377990950096912
19026448 5 18410854347889952641
19050596 39 18335138691709558571
19422 9 18410575067488497490
200 152 18341337721366580767
20233049 118 17603581920098233448
20279233 1 15626227900823289161
20281475 54 18411426080962050871
20645477 70 17918000489970150146
21065198 48 18410572881577094673
2255824 54 18273213067562718388
22646028 1 18409169904708287011
22854114 59 17632859702558013297
23048698 100 18343582927962588929
23402539 116 18040724671333476501
300161 21 18408891715197155800
42 15 18333452062104806498
474 4 17983014453765484772
5104073 3 18334574620811871803
522135 26 18272651242700857060
5281201 14 17203612601058004430
573450 72 18187367640435396707
77779 3 18342174453614763641
8272917 22 18339918311452290886
9981440 41 17330280467884057640

> <PUBCHEM_SHAPE_MULTIPOLES>
311.66
10.1
1.41
0.99
1.75
0
-0.1
0.99
1.33
-0.69
0.04
0
0.08
-1.39

> <PUBCHEM_SHAPE_SELFOVERLAP>
676.146

> <PUBCHEM_SHAPE_VOLUME>
168

> <PUBCHEM_COORDINATE_TYPE>
2
5
10

$$$$

