854052
  -OEChem-06241222473D

 20 19  0     0  0  0  0  0  0999 V2000
   -0.0523   -1.7481   -0.2769 F   0  0  0  0  0  0  0  0  0  0  0  0
   -1.2344    0.1698    0.0495 N   0  3  0  0  0  0  0  0  0  0  0  0
    1.2206    0.1240   -0.0369 N   0  0  0  0  0  0  0  0  0  0  0  0
   -0.0202   -0.4098   -0.0770 C   0  0  0  0  0  0  0  0  0  0  0  0
   -2.5235   -0.5340   -0.0147 C   0  0  0  0  0  0  0  0  0  0  0  0
   -1.2748    1.6254    0.3074 C   0  0  0  0  0  0  0  0  0  0  0  0
    1.5722    1.4906   -0.4492 C   0  0  0  0  0  0  0  0  0  0  0  0
    2.3125   -0.7180    0.4978 C   0  0  0  0  0  0  0  0  0  0  0  0
   -2.9738   -0.5485    0.9816 H   0  0  0  0  0  0  0  0  0  0  0  0
   -2.3814   -1.5610   -0.3612 H   0  0  0  0  0  0  0  0  0  0  0  0
   -3.1854   -0.0155   -0.7143 H   0  0  0  0  0  0  0  0  0  0  0  0
   -0.5902    1.8862    1.1176 H   0  0  0  0  0  0  0  0  0  0  0  0
   -2.2813    1.9058    0.6369 H   0  0  0  0  0  0  0  0  0  0  0  0
   -1.0633    2.1739   -0.6122 H   0  0  0  0  0  0  0  0  0  0  0  0
    2.6138    1.5092   -0.7870 H   0  0  0  0  0  0  0  0  0  0  0  0
    1.4717    2.1754    0.3955 H   0  0  0  0  0  0  0  0  0  0  0  0
    0.9542    1.8007   -1.2947 H   0  0  0  0  0  0  0  0  0  0  0  0
    3.0196   -0.0940    1.0523 H   0  0  0  0  0  0  0  0  0  0  0  0
    2.8242   -1.2053   -0.3363 H   0  0  0  0  0  0  0  0  0  0  0  0
    1.9096   -1.4742    1.1786 H   0  0  0  0  0  0  0  0  0  0  0  0
  1  4  1  0  0  0  0
  2  4  2  0  0  0  0
  2  5  1  0  0  0  0
  2  6  1  0  0  0  0
  3  4  1  0  0  0  0
  3  7  1  0  0  0  0
  3  8  1  0  0  0  0
  5  9  1  0  0  0  0
  5 10  1  0  0  0  0
  5 11  1  0  0  0  0
  6 12  1  0  0  0  0
  6 13  1  0  0  0  0
  6 14  1  0  0  0  0
  7 15  1  0  0  0  0
  7 16  1  0  0  0  0
  7 17  1  0  0  0  0
  8 18  1  0  0  0  0
  8 19  1  0  0  0  0
  8 20  1  0  0  0  0
M  CHG  1   2   1
M  END
> <PUBCHEM_COMPOUND_CID>
854052

> <PUBCHEM_CONFORMER_RMSD>
0.4

> <PUBCHEM_CONFORMER_DIVERSEORDER>
1
2
3

> <PUBCHEM_MMFF94_PARTIAL_CHARGES>
8
1 -0.21
2 -0.83
3 -0.83
4 0.92
5 0.49
6 0.49
7 0.49
8 0.49

> <PUBCHEM_EFFECTIVE_ROTOR_COUNT>
1

> <PUBCHEM_PHARMACOPHORE_FEATURES>
1
3 2 3 4 cation

> <PUBCHEM_HEAVY_ATOM_COUNT>
8

> <PUBCHEM_ATOM_DEF_STEREO_COUNT>
0

> <PUBCHEM_ATOM_UDEF_STEREO_COUNT>
0

> <PUBCHEM_BOND_DEF_STEREO_COUNT>
0

> <PUBCHEM_BOND_UDEF_STEREO_COUNT>
0

> <PUBCHEM_ISOTOPIC_ATOM_COUNT>
0

> <PUBCHEM_COMPONENT_COUNT>
1

> <PUBCHEM_CACTVS_TAUTO_COUNT>
1

> <PUBCHEM_CONFORMER_ID>
000D082400000001

> <PUBCHEM_MMFF94_ENERGY>
26.7546

> <PUBCHEM_FEATURE_SELFOVERLAP>
5.074

> <PUBCHEM_SHAPE_FINGERPRINT>
16714656 1 18190451675787708189
18185500 45 18123471570607065180
20096714 4 18412258411385440724
21040471 1 18336544902435460876
23552423 10 18342737424853195294
24536 1 18337113487438761069
29004967 10 15051440682806157840
5084963 1 18113896086986159250

> <PUBCHEM_SHAPE_MULTIPOLES>
147.4
3.11
1.67
0.66
0.29
0.33
-0.02
-0.26
-0.24
-0.08
0.07
-0.09
0.04
-0.36

> <PUBCHEM_SHAPE_SELFOVERLAP>
265.662

> <PUBCHEM_SHAPE_VOLUME>
98.2

> <PUBCHEM_COORDINATE_TYPE>
2
5
10

$$$$

