17395750
  -OEChem-06241222523D

 39 40  0     1  0  0  0  0  0999 V2000
    4.6421    3.6312    0.6653 Br  0  0  0  0  0  0  0  0  0  0  0  0
   -0.8541   -0.7053   -1.4478 O   0  0  0  0  0  0  0  0  0  0  0  0
   -4.9251    1.0636    0.7567 O   0  0  0  0  0  0  0  0  0  0  0  0
    1.5010   -1.4675   -0.2829 N   0  0  0  0  0  0  0  0  0  0  0  0
   -1.8456   -0.6366    0.6796 N   0  0  0  0  0  0  0  0  0  0  0  0
   -3.9168    0.3551    1.3987 N   0  0  0  0  0  0  0  0  0  0  0  0
    0.2629   -1.7692    0.4038 C   0  0  2  0  0  0  0  0  0  0  0  0
   -0.0376   -3.2691    0.3259 C   0  0  0  0  0  0  0  0  0  0  0  0
    2.2279   -0.3085   -0.0763 C   0  0  0  0  0  0  0  0  0  0  0  0
   -0.8648   -0.9722   -0.2493 C   0  0  0  0  0  0  0  0  0  0  0  0
    1.0540   -4.1190    0.9625 C   0  0  0  0  0  0  0  0  0  0  0  0
    3.4153   -0.0772   -0.7709 C   0  0  0  0  0  0  0  0  0  0  0  0
    1.7598    0.6346    0.8389 C   0  0  0  0  0  0  0  0  0  0  0  0
    4.1349    1.0971   -0.5501 C   0  0  0  0  0  0  0  0  0  0  0  0
    3.9388   -1.0703   -1.7571 C   0  0  0  0  0  0  0  0  0  0  0  0
   -3.0270    0.0766    0.4418 C   0  0  0  0  0  0  0  0  0  0  0  0
    2.4798    1.8088    1.0598 C   0  0  0  0  0  0  0  0  0  0  0  0
    3.6674    2.0400    0.3653 C   0  0  0  0  0  0  0  0  0  0  0  0
   -3.4164    0.5792   -0.8118 C   0  0  0  0  0  0  0  0  0  0  0  0
   -4.6159    1.1906   -0.5591 C   0  0  0  0  0  0  0  0  0  0  0  0
   -5.5808    1.9183   -1.3926 C   0  0  0  0  0  0  0  0  0  0  0  0
    0.3416   -1.5255    1.4703 H   0  0  0  0  0  0  0  0  0  0  0  0
   -0.9908   -3.4799    0.8264 H   0  0  0  0  0  0  0  0  0  0  0  0
   -0.1634   -3.5777   -0.7199 H   0  0  0  0  0  0  0  0  0  0  0  0
    1.7894   -2.0919   -1.0269 H   0  0  0  0  0  0  0  0  0  0  0  0
    1.2130   -3.8345    2.0075 H   0  0  0  0  0  0  0  0  0  0  0  0
    0.7664   -5.1752    0.9405 H   0  0  0  0  0  0  0  0  0  0  0  0
    2.0049   -4.0235    0.4296 H   0  0  0  0  0  0  0  0  0  0  0  0
    0.8432    0.5160    1.4059 H   0  0  0  0  0  0  0  0  0  0  0  0
   -1.7285   -0.9286    1.6463 H   0  0  0  0  0  0  0  0  0  0  0  0
    5.0608    1.2787   -1.0913 H   0  0  0  0  0  0  0  0  0  0  0  0
    4.1093   -2.0391   -1.2757 H   0  0  0  0  0  0  0  0  0  0  0  0
    3.2362   -1.1932   -2.5880 H   0  0  0  0  0  0  0  0  0  0  0  0
    4.8955   -0.7521   -2.1859 H   0  0  0  0  0  0  0  0  0  0  0  0
    2.1018    2.5345    1.7754 H   0  0  0  0  0  0  0  0  0  0  0  0
   -2.9271    0.5249   -1.7721 H   0  0  0  0  0  0  0  0  0  0  0  0
   -5.2455    1.9684   -2.4333 H   0  0  0  0  0  0  0  0  0  0  0  0
   -5.7087    2.9424   -1.0284 H   0  0  0  0  0  0  0  0  0  0  0  0
   -6.5561    1.4224   -1.3745 H   0  0  0  0  0  0  0  0  0  0  0  0
  1 18  1  0  0  0  0
  2 10  2  0  0  0  0
  3  6  1  0  0  0  0
  3 20  1  0  0  0  0
  4  7  1  0  0  0  0
  4  9  1  0  0  0  0
  4 25  1  0  0  0  0
  5 10  1  0  0  0  0
  5 16  1  0  0  0  0
  5 30  1  0  0  0  0
  6 16  2  0  0  0  0
  7  8  1  0  0  0  0
  7 10  1  0  0  0  0
  7 22  1  0  0  0  0
  8 11  1  0  0  0  0
  8 23  1  0  0  0  0
  8 24  1  0  0  0  0
  9 12  2  0  0  0  0
  9 13  1  0  0  0  0
 11 26  1  0  0  0  0
 11 27  1  0  0  0  0
 11 28  1  0  0  0  0
 12 14  1  0  0  0  0
 12 15  1  0  0  0  0
 13 17  2  0  0  0  0
 13 29  1  0  0  0  0
 14 18  2  0  0  0  0
 14 31  1  0  0  0  0
 15 32  1  0  0  0  0
 15 33  1  0  0  0  0
 15 34  1  0  0  0  0
 16 19  1  0  0  0  0
 17 18  1  0  0  0  0
 17 35  1  0  0  0  0
 19 20  2  0  0  0  0
 19 36  1  0  0  0  0
 20 21  1  0  0  0  0
 21 37  1  0  0  0  0
 21 38  1  0  0  0  0
 21 39  1  0  0  0  0
M  END
> <PUBCHEM_COMPOUND_CID>
17395750

> <PUBCHEM_CONFORMER_RMSD>
0.8

> <PUBCHEM_CONFORMER_DIVERSEORDER>
1
68
42
9
55
62
66
3
46
27
54
53
67
58
8
65
70
59
28
40
71
63
38
21
34
61
41
48
32
17
31
14
4
30
56
51
15
16
18
6
50
44
52
43
10
22
69
11
47
26
7
5
35
39
33
45
36
20
57
13
29
24
23
60
2
49
12
64
37
25
19

> <PUBCHEM_MMFF94_PARTIAL_CHARGES>
25
1 -0.11
10 0.57
12 -0.14
13 -0.15
14 -0.15
15 0.14
16 0.35
17 -0.15
18 0.11
19 -0.15
2 -0.57
20 -0.04
21 0.18
25 0.4
29 0.15
3 -0.02
30 0.37
31 0.15
35 0.15
36 0.15
4 -0.87
5 -0.49
6 -0.41
7 0.43
9 0.1

> <PUBCHEM_EFFECTIVE_ROTOR_COUNT>
6

> <PUBCHEM_PHARMACOPHORE_FEATURES>
8
1 1 hydrophobe
1 11 hydrophobe
1 2 acceptor
1 4 cation
1 4 donor
1 5 donor
5 3 6 16 19 20 rings
6 9 12 13 14 17 18 rings

> <PUBCHEM_HEAVY_ATOM_COUNT>
21

> <PUBCHEM_ATOM_DEF_STEREO_COUNT>
0

> <PUBCHEM_ATOM_UDEF_STEREO_COUNT>
1

> <PUBCHEM_BOND_DEF_STEREO_COUNT>
0

> <PUBCHEM_BOND_UDEF_STEREO_COUNT>
0

> <PUBCHEM_ISOTOPIC_ATOM_COUNT>
0

> <PUBCHEM_COMPONENT_COUNT>
1

> <PUBCHEM_CACTVS_TAUTO_COUNT>
3

> <PUBCHEM_CONFORMER_ID>
0109702600000001

> <PUBCHEM_MMFF94_ENERGY>
49.2588

> <PUBCHEM_FEATURE_SELFOVERLAP>
40.594

> <PUBCHEM_SHAPE_FINGERPRINT>
10165383 225 18201704181171817790
10498660 4 18410858746079297833
11135609 149 17536039105745952774
12173636 292 18268993072736315870
12363563 72 8142091982614939309
12403259 415 18340759382376604321
12532896 13 18339644426004753522
12596602 18 14692271959656514501
12730499 353 18341324583146291419
12769317 202 18408890667251515977
12788726 201 17832725473133746234
12895836 83 17700946926476337470
13294875 104 18336558178696792786
13878862 14 17840891860290418285
13955234 65 18198624522164580899
13965767 371 17917167030328661268
14123255 52 18412266112077036713
14178342 30 17912928275818105210
14252887 29 9799687086872311926
14528608 73 18336836363870622149
14848178 96 18335703827522265449
17134986 127 18410577288176883362
17868525 174 17479465985396040729
17980427 26 18337409192032812982
1813 80 17393608407669920247
18186145 218 18335414668848652850
193927 3 8646775512214308101
19784866 34 18410016524424853065
20832881 197 18264194989235483870
21033648 29 18343299236635391684
21401589 2 18192430775206140776
22182937 141 18120370956454144416
22393880 68 18408325501543486495
231179 274 18411416232559570301
23558518 356 18195528078251006070
23559900 14 17487892522342077911
23845131 108 18272093773205567691
25 1 18333725815031155098
341906 21 17060058185661820981
474 4 18408328787013762385
495365 180 18129670845225338587
56616090 46 18338800010207439904
633830 44 18260545636668989101
6442390 28 18342450396573948539
77188 2 17619357940408983818
7808743 9 18056191367915043708
81228 2 17696752160324805770

> <PUBCHEM_SHAPE_MULTIPOLES>
411.43
11.02
3.97
1.33
9.05
2.51
-0.28
-12.37
-1.85
-3.12
1.19
0.06
0.01
1.9

> <PUBCHEM_SHAPE_SELFOVERLAP>
845.558

> <PUBCHEM_SHAPE_VOLUME>
242.5

> <PUBCHEM_COORDINATE_TYPE>
2
5
10

$$$$

