17395284
  -OEChem-06241222492D

 45 47  0     1  0  0  0  0  0999 V2000
    2.0000   -1.7694    0.0000 Cl  0  0  0  0  0  0  0  0  0  0  0  0
    5.4641   -3.7694    0.0000 Cl  0  0  0  0  0  0  0  0  0  0  0  0
    3.7320   -4.7694    0.0000 Cl  0  0  0  0  0  0  0  0  0  0  0  0
    4.9641    3.7694    0.0000 S   0  0  0  0  0  0  0  0  0  0  0  0
    4.9641    4.7694    0.0000 O   0  0  0  0  0  0  0  0  0  0  0  0
    4.0130    4.0784    0.0000 O   0  0  0  0  0  0  0  0  0  0  0  0
    3.7320    1.2306    0.0000 O   0  0  0  0  0  0  0  0  0  0  0  0
    3.7320   -0.7694    0.0000 O   0  0  0  0  0  0  0  0  0  0  0  0
    5.4641    1.2306    0.0000 N   0  0  0  0  0  0  0  0  0  0  0  0
    8.0622    2.7306    0.0000 N   0  0  0  0  0  0  0  0  0  0  0  0
    5.4641    2.2306    0.0000 C   0  0  3  0  0  0  0  0  0  0  0  0
    4.6551    2.8184    0.0000 C   0  0  0  0  0  0  0  0  0  0  0  0
    6.2731    2.8184    0.0000 C   0  0  0  0  0  0  0  0  0  0  0  0
    5.9641    3.7694    0.0000 C   0  0  0  0  0  0  0  0  0  0  0  0
    6.3301    0.7306    0.0000 C   0  0  0  0  0  0  0  0  0  0  0  0
    4.5981    0.7306    0.0000 C   0  0  0  0  0  0  0  0  0  0  0  0
    7.1962    1.2306    0.0000 C   0  0  0  0  0  0  0  0  0  0  0  0
    4.5981   -0.2694    0.0000 C   0  0  0  0  0  0  0  0  0  0  0  0
    8.0622    0.7306    0.0000 C   0  0  0  0  0  0  0  0  0  0  0  0
    7.1962    2.2306    0.0000 C   0  0  0  0  0  0  0  0  0  0  0  0
    8.9282    1.2306    0.0000 C   0  0  0  0  0  0  0  0  0  0  0  0
    3.7320   -1.7694    0.0000 C   0  0  0  0  0  0  0  0  0  0  0  0
    8.9282    2.2306    0.0000 C   0  0  0  0  0  0  0  0  0  0  0  0
    2.8660   -2.2694    0.0000 C   0  0  0  0  0  0  0  0  0  0  0  0
    4.5981   -2.2694    0.0000 C   0  0  0  0  0  0  0  0  0  0  0  0
    4.5981   -3.2694    0.0000 C   0  0  0  0  0  0  0  0  0  0  0  0
    2.8660   -3.2694    0.0000 C   0  0  0  0  0  0  0  0  0  0  0  0
    3.7320   -3.7694    0.0000 C   0  0  0  0  0  0  0  0  0  0  0  0
    6.0165    1.9491    0.0000 H   0  0  0  0  0  0  0  0  0  0  0  0
    4.0887    3.0705    0.0000 H   0  0  0  0  0  0  0  0  0  0  0  0
    4.3451    2.2814    0.0000 H   0  0  0  0  0  0  0  0  0  0  0  0
    6.5831    2.2814    0.0000 H   0  0  0  0  0  0  0  0  0  0  0  0
    6.8395    3.0705    0.0000 H   0  0  0  0  0  0  0  0  0  0  0  0
    6.5706    3.8983    0.0000 H   0  0  0  0  0  0  0  0  0  0  0  0
    5.8993    4.3860    0.0000 H   0  0  0  0  0  0  0  0  0  0  0  0
    5.9316    0.2556    0.0000 H   0  0  0  0  0  0  0  0  0  0  0  0
    6.7287    0.2556    0.0000 H   0  0  0  0  0  0  0  0  0  0  0  0
    4.8101   -0.8520    0.0000 H   0  0  0  0  0  0  0  0  0  0  0  0
    5.2087   -0.1618    0.0000 H   0  0  0  0  0  0  0  0  0  0  0  0
    8.0622    0.1106    0.0000 H   0  0  0  0  0  0  0  0  0  0  0  0
    6.6592    2.5406    0.0000 H   0  0  0  0  0  0  0  0  0  0  0  0
    9.4651    0.9206    0.0000 H   0  0  0  0  0  0  0  0  0  0  0  0
    9.4651    2.5406    0.0000 H   0  0  0  0  0  0  0  0  0  0  0  0
    5.1350   -1.9594    0.0000 H   0  0  0  0  0  0  0  0  0  0  0  0
    2.3291   -3.5794    0.0000 H   0  0  0  0  0  0  0  0  0  0  0  0
  1 24  1  0  0  0  0
  2 26  1  0  0  0  0
  3 28  1  0  0  0  0
  4  5  2  0  0  0  0
  4  6  2  0  0  0  0
  4 12  1  0  0  0  0
  4 14  1  0  0  0  0
  7 16  2  0  0  0  0
  8 18  1  0  0  0  0
  8 22  1  0  0  0  0
  9 11  1  0  0  0  0
  9 15  1  0  0  0  0
  9 16  1  0  0  0  0
 10 20  1  0  0  0  0
 10 23  2  0  0  0  0
 11 12  1  0  0  0  0
 11 13  1  0  0  0  0
 11 29  1  0  0  0  0
 12 30  1  0  0  0  0
 12 31  1  0  0  0  0
 13 14  1  0  0  0  0
 13 32  1  0  0  0  0
 13 33  1  0  0  0  0
 14 34  1  0  0  0  0
 14 35  1  0  0  0  0
 15 17  1  0  0  0  0
 15 36  1  0  0  0  0
 15 37  1  0  0  0  0
 16 18  1  0  0  0  0
 17 19  1  0  0  0  0
 17 20  2  0  0  0  0
 18 38  1  0  0  0  0
 18 39  1  0  0  0  0
 19 21  2  0  0  0  0
 19 40  1  0  0  0  0
 20 41  1  0  0  0  0
 21 23  1  0  0  0  0
 21 42  1  0  0  0  0
 22 24  1  0  0  0  0
 22 25  2  0  0  0  0
 23 43  1  0  0  0  0
 24 27  2  0  0  0  0
 25 26  1  0  0  0  0
 25 44  1  0  0  0  0
 26 28  2  0  0  0  0
 27 28  1  0  0  0  0
 27 45  1  0  0  0  0
M  END
> <PUBCHEM_COMPOUND_CID>
17395284

> <PUBCHEM_COMPOUND_CANONICALIZED>
1

> <PUBCHEM_CACTVS_COMPLEXITY>
645

> <PUBCHEM_CACTVS_HBOND_ACCEPTOR>
5

> <PUBCHEM_CACTVS_HBOND_DONOR>
0

> <PUBCHEM_CACTVS_ROTATABLE_BOND>
6

> <PUBCHEM_CACTVS_SUBSKEYS>
AAADceB7OABGAAAAAAAAAAAAAAAAASAAAAA8QAAAAAAAAAABwAAAHgYAAAAADC7l2ia8hpMIFAqoAjF3VHLCiCAxJ3AI2mB+b5gOJuPl85+HOCjkxhH46AeQQAAMACAQAQCACAQAQCACAQAQCAAAAAAAAA==

> <PUBCHEM_IUPAC_OPENEYE_NAME>
N-(1,1-dioxothiolan-3-yl)-N-(3-pyridylmethyl)-2-(2,4,5-trichlorophenoxy)acetamide

> <PUBCHEM_IUPAC_CAS_NAME>
N-(1,1-dioxo-3-thiolanyl)-N-(3-pyridinylmethyl)-2-(2,4,5-trichlorophenoxy)acetamide

> <PUBCHEM_IUPAC_NAME>
N-(1,1-dioxothiolan-3-yl)-N-(pyridin-3-ylmethyl)-2-(2,4,5-trichlorophenoxy)acetamide

> <PUBCHEM_IUPAC_SYSTEMATIC_NAME>
N-[1,1-bis(oxidanylidene)thiolan-3-yl]-N-(pyridin-3-ylmethyl)-2-[2,4,5-tris(chloranyl)phenoxy]ethanamide

> <PUBCHEM_IUPAC_TRADITIONAL_NAME>
N-(1,1-diketothiolan-3-yl)-N-(3-pyridylmethyl)-2-(2,4,5-trichlorophenoxy)acetamide

> <PUBCHEM_IUPAC_INCHI>
InChI=1S/C18H17Cl3N2O4S/c19-14-6-16(21)17(7-15(14)20)27-10-18(24)23(9-12-2-1-4-22-8-12)13-3-5-28(25,26)11-13/h1-2,4,6-8,13H,3,5,9-11H2

> <PUBCHEM_IUPAC_INCHIKEY>
XKNUYGDBUSJGCN-UHFFFAOYSA-N

> <PUBCHEM_XLOGP3_AA>
3.3

> <PUBCHEM_EXACT_MASS>
461.997461

> <PUBCHEM_MOLECULAR_FORMULA>
C18H17Cl3N2O4S

> <PUBCHEM_MOLECULAR_WEIGHT>
463.76258

> <PUBCHEM_OPENEYE_CAN_SMILES>
C1CS(=O)(=O)CC1N(CC2=CN=CC=C2)C(=O)COC3=CC(=C(C=C3Cl)Cl)Cl

> <PUBCHEM_OPENEYE_ISO_SMILES>
C1CS(=O)(=O)CC1N(CC2=CN=CC=C2)C(=O)COC3=CC(=C(C=C3Cl)Cl)Cl

> <PUBCHEM_CACTVS_TPSA>
85

> <PUBCHEM_MONOISOTOPIC_WEIGHT>
461.997461

> <PUBCHEM_TOTAL_CHARGE>
0

> <PUBCHEM_HEAVY_ATOM_COUNT>
28

> <PUBCHEM_ATOM_DEF_STEREO_COUNT>
0

> <PUBCHEM_ATOM_UDEF_STEREO_COUNT>
1

> <PUBCHEM_BOND_DEF_STEREO_COUNT>
0

> <PUBCHEM_BOND_UDEF_STEREO_COUNT>
0

> <PUBCHEM_ISOTOPIC_ATOM_COUNT>
0

> <PUBCHEM_COMPONENT_COUNT>
1

> <PUBCHEM_CACTVS_TAUTO_COUNT>
1

> <PUBCHEM_COORDINATE_TYPE>
1
5
255

> <PUBCHEM_BONDANNOTATIONS>
10  20  8
10  23  8
17  19  8
17  20  8
19  21  8
21  23  8
22  24  8
22  25  8
24  27  8
25  26  8
26  28  8
27  28  8
11  9  3

$$$$

