47205688
  -OEChem-06241222592D

 44 44  0     0  0  0  0  0  0999 V2000
    3.7320    0.0000    0.0000 O   0  0  0  0  0  0  0  0  0  0  0  0
    4.5981   -3.5000    0.0000 O   0  0  0  0  0  0  0  0  0  0  0  0
    5.4641    0.0000    0.0000 N   0  0  0  0  0  0  0  0  0  0  0  0
    3.7320   -2.0000    0.0000 N   0  0  0  0  0  0  0  0  0  0  0  0
    5.4641    4.0000    0.0000 C   0  0  0  0  0  0  0  0  0  0  0  0
    5.4641    3.0000    0.0000 C   0  0  0  0  0  0  0  0  0  0  0  0
    5.4641    5.0000    0.0000 C   0  0  0  0  0  0  0  0  0  0  0  0
    6.4641    4.0000    0.0000 C   0  0  0  0  0  0  0  0  0  0  0  0
    4.4641    4.0000    0.0000 C   0  0  0  0  0  0  0  0  0  0  0  0
    4.5981    2.5000    0.0000 C   0  0  0  0  0  0  0  0  0  0  0  0
    6.3301    2.5000    0.0000 C   0  0  0  0  0  0  0  0  0  0  0  0
    5.4641    1.0000    0.0000 C   0  0  0  0  0  0  0  0  0  0  0  0
    4.5981    1.5000    0.0000 C   0  0  0  0  0  0  0  0  0  0  0  0
    6.3301    1.5000    0.0000 C   0  0  0  0  0  0  0  0  0  0  0  0
    4.5981   -0.5000    0.0000 C   0  0  0  0  0  0  0  0  0  0  0  0
    4.5981   -1.5000    0.0000 C   0  0  0  0  0  0  0  0  0  0  0  0
    2.8660   -3.5000    0.0000 C   0  0  0  0  0  0  0  0  0  0  0  0
    2.8660   -4.5000    0.0000 C   0  0  0  0  0  0  0  0  0  0  0  0
    3.7320   -3.0000    0.0000 C   0  0  0  0  0  0  0  0  0  0  0  0
    2.0000   -5.0000    0.0000 C   0  0  0  0  0  0  0  0  0  0  0  0
    4.4641    4.6200    0.0000 H   0  0  0  0  0  0  0  0  0  0  0  0
    3.8441    4.0000    0.0000 H   0  0  0  0  0  0  0  0  0  0  0  0
    4.4641    3.3800    0.0000 H   0  0  0  0  0  0  0  0  0  0  0  0
    6.4641    3.3800    0.0000 H   0  0  0  0  0  0  0  0  0  0  0  0
    7.0841    4.0000    0.0000 H   0  0  0  0  0  0  0  0  0  0  0  0
    6.4641    4.6200    0.0000 H   0  0  0  0  0  0  0  0  0  0  0  0
    6.0841    5.0000    0.0000 H   0  0  0  0  0  0  0  0  0  0  0  0
    5.4641    5.6200    0.0000 H   0  0  0  0  0  0  0  0  0  0  0  0
    4.8441    5.0000    0.0000 H   0  0  0  0  0  0  0  0  0  0  0  0
    4.0611    2.8100    0.0000 H   0  0  0  0  0  0  0  0  0  0  0  0
    6.8671    2.8100    0.0000 H   0  0  0  0  0  0  0  0  0  0  0  0
    4.0611    1.1900    0.0000 H   0  0  0  0  0  0  0  0  0  0  0  0
    6.8671    1.1900    0.0000 H   0  0  0  0  0  0  0  0  0  0  0  0
    6.0010   -0.3100    0.0000 H   0  0  0  0  0  0  0  0  0  0  0  0
    2.6540   -2.9174    0.0000 H   0  0  0  0  0  0  0  0  0  0  0  0
    2.2554   -3.6077    0.0000 H   0  0  0  0  0  0  0  0  0  0  0  0
    4.8101   -2.0826    0.0000 H   0  0  0  0  0  0  0  0  0  0  0  0
    5.2087   -1.3923    0.0000 H   0  0  0  0  0  0  0  0  0  0  0  0
    3.0781   -5.0826    0.0000 H   0  0  0  0  0  0  0  0  0  0  0  0
    3.4766   -4.3923    0.0000 H   0  0  0  0  0  0  0  0  0  0  0  0
    3.1951   -1.6900    0.0000 H   0  0  0  0  0  0  0  0  0  0  0  0
    1.6900   -4.4631    0.0000 H   0  0  0  0  0  0  0  0  0  0  0  0
    1.4631   -5.3100    0.0000 H   0  0  0  0  0  0  0  0  0  0  0  0
    2.3100   -5.5369    0.0000 H   0  0  0  0  0  0  0  0  0  0  0  0
  1 15  2  0  0  0  0
  2 19  2  0  0  0  0
  3 12  1  0  0  0  0
  3 15  1  0  0  0  0
  3 34  1  0  0  0  0
  4 16  1  0  0  0  0
  4 19  1  0  0  0  0
  4 41  1  0  0  0  0
  5  6  1  0  0  0  0
  5  7  1  0  0  0  0
  5  8  1  0  0  0  0
  5  9  1  0  0  0  0
  6 10  2  0  0  0  0
  6 11  1  0  0  0  0
  7 27  1  0  0  0  0
  7 28  1  0  0  0  0
  7 29  1  0  0  0  0
  8 24  1  0  0  0  0
  8 25  1  0  0  0  0
  8 26  1  0  0  0  0
  9 21  1  0  0  0  0
  9 22  1  0  0  0  0
  9 23  1  0  0  0  0
 10 13  1  0  0  0  0
 10 30  1  0  0  0  0
 11 14  2  0  0  0  0
 11 31  1  0  0  0  0
 12 13  2  0  0  0  0
 12 14  1  0  0  0  0
 13 32  1  0  0  0  0
 14 33  1  0  0  0  0
 15 16  1  0  0  0  0
 16 37  1  0  0  0  0
 16 38  1  0  0  0  0
 17 18  1  0  0  0  0
 17 19  1  0  0  0  0
 17 35  1  0  0  0  0
 17 36  1  0  0  0  0
 18 20  1  0  0  0  0
 18 39  1  0  0  0  0
 18 40  1  0  0  0  0
 20 42  1  0  0  0  0
 20 43  1  0  0  0  0
 20 44  1  0  0  0  0
M  END
> <PUBCHEM_COMPOUND_CID>
47205688

> <PUBCHEM_COMPOUND_CANONICALIZED>
1

> <PUBCHEM_CACTVS_COMPLEXITY>
326

> <PUBCHEM_CACTVS_HBOND_ACCEPTOR>
2

> <PUBCHEM_CACTVS_HBOND_DONOR>
2

> <PUBCHEM_CACTVS_ROTATABLE_BOND>
6

> <PUBCHEM_CACTVS_SUBSKEYS>
AAADceB7MAAAAAAAAAAAAAAAAAAAAAAAAAAwAAAAAAAAAAABAAAAHgAQAAAADgjBmAQywILAAACIAiVSUACCAAAhAgAIiIGIZIgIYDLAkbGUIAhglgDIyAcQgMAPiAAAAAAAAAAQAAAAAAAAAAAAAAAAAA==

> <PUBCHEM_IUPAC_OPENEYE_NAME>
N-[2-(4-tert-butylanilino)-2-oxo-ethyl]butanamide

> <PUBCHEM_IUPAC_CAS_NAME>
N-[2-(4-tert-butylanilino)-2-oxoethyl]butanamide

> <PUBCHEM_IUPAC_NAME>
N-[2-(4-tert-butylanilino)-2-oxoethyl]butanamide

> <PUBCHEM_IUPAC_SYSTEMATIC_NAME>
N-[2-[(4-tert-butylphenyl)amino]-2-oxidanylidene-ethyl]butanamide

> <PUBCHEM_IUPAC_TRADITIONAL_NAME>
N-[2-(4-tert-butylanilino)-2-keto-ethyl]butyramide

> <PUBCHEM_IUPAC_INCHI>
InChI=1S/C16H24N2O2/c1-5-6-14(19)17-11-15(20)18-13-9-7-12(8-10-13)16(2,3)4/h7-10H,5-6,11H2,1-4H3,(H,17,19)(H,18,20)

> <PUBCHEM_IUPAC_INCHIKEY>
FBLYJECNYQPYIK-UHFFFAOYSA-N

> <PUBCHEM_XLOGP3_AA>
2.9

> <PUBCHEM_EXACT_MASS>
276.183778

> <PUBCHEM_MOLECULAR_FORMULA>
C16H24N2O2

> <PUBCHEM_MOLECULAR_WEIGHT>
276.37396

> <PUBCHEM_OPENEYE_CAN_SMILES>
CCCC(=O)NCC(=O)NC1=CC=C(C=C1)C(C)(C)C

> <PUBCHEM_OPENEYE_ISO_SMILES>
CCCC(=O)NCC(=O)NC1=CC=C(C=C1)C(C)(C)C

> <PUBCHEM_CACTVS_TPSA>
58.2

> <PUBCHEM_MONOISOTOPIC_WEIGHT>
276.183778

> <PUBCHEM_TOTAL_CHARGE>
0

> <PUBCHEM_HEAVY_ATOM_COUNT>
20

> <PUBCHEM_ATOM_DEF_STEREO_COUNT>
0

> <PUBCHEM_ATOM_UDEF_STEREO_COUNT>
0

> <PUBCHEM_BOND_DEF_STEREO_COUNT>
0

> <PUBCHEM_BOND_UDEF_STEREO_COUNT>
0

> <PUBCHEM_ISOTOPIC_ATOM_COUNT>
0

> <PUBCHEM_COMPONENT_COUNT>
1

> <PUBCHEM_CACTVS_TAUTO_COUNT>
6

> <PUBCHEM_COORDINATE_TYPE>
1
5
255

> <PUBCHEM_BONDANNOTATIONS>
10  13  8
11  14  8
12  13  8
12  14  8
6  10  8
6  11  8

$$$$

