10652
  -OEChem-06261204482D

 73 74  0     1  0  0  0  0  0999 V2000
    5.2552   -0.8487    0.0000 O   0  0  0  0  0  0  0  0  0  0  0  0
    7.8225   -1.4464    0.0000 O   0  0  0  0  0  0  0  0  0  0  0  0
    7.8225    1.4330    0.0000 O   0  0  0  0  0  0  0  0  0  0  0  0
    6.3377    2.1253    0.0000 O   0  0  0  0  0  0  0  0  0  0  0  0
    9.4545   -1.5892    0.0000 O   0  0  0  0  0  0  0  0  0  0  0  0
    4.9544   -2.5545    0.0000 O   0  0  0  0  0  0  0  0  0  0  0  0
   10.8965    1.4933    0.0000 O   0  0  0  0  0  0  0  0  0  0  0  0
   12.6286    1.4933    0.0000 O   0  0  0  0  0  0  0  0  0  0  0  0
   16.0927    0.4933    0.0000 O   0  0  0  0  0  0  0  0  0  0  0  0
   10.0305   -0.0067    0.0000 N   0  0  0  0  0  0  0  0  0  0  0  0
   14.3606    0.4933    0.0000 N   0  0  0  0  0  0  0  0  0  0  0  0
    6.1949    0.4933    0.0000 C   0  0  1  0  0  0  0  0  0  0  0  0
    6.1949   -0.5067    0.0000 C   0  0  1  0  0  0  0  0  0  0  0  0
    5.2552    0.8353    0.0000 C   0  0  0  0  0  0  0  0  0  0  0  0
    6.8377   -1.2728    0.0000 C   0  0  2  0  0  0  0  0  0  0  0  0
    5.0815    1.8201    0.0000 C   0  0  0  0  0  0  0  0  0  0  0  0
    6.8377    1.2593    0.0000 C   0  0  0  0  0  0  0  0  0  0  0  0
    8.6885    0.9330    0.0000 C   0  0  3  0  0  0  0  0  0  0  0  0
    9.0305   -0.0067    0.0000 C   0  0  3  0  0  0  0  0  0  0  0  0
    6.8377   -2.2728    0.0000 C   0  0  0  0  0  0  0  0  0  0  0  0
    4.1418    2.1621    0.0000 C   0  0  0  0  0  0  0  0  0  0  0  0
    8.6885   -0.9464    0.0000 C   0  0  0  0  0  0  0  0  0  0  0  0
    9.0305    1.8727    0.0000 C   0  0  0  0  0  0  0  0  0  0  0  0
    4.6125   -1.6148    0.0000 C   0  0  0  0  0  0  0  0  0  0  0  0
    3.6276   -1.4412    0.0000 C   0  0  0  0  0  0  0  0  0  0  0  0
    3.9682    3.1469    0.0000 C   0  0  0  0  0  0  0  0  0  0  0  0
    2.9848   -2.2072    0.0000 C   0  0  0  0  0  0  0  0  0  0  0  0
   10.8965    0.4933    0.0000 C   0  0  0  0  0  0  0  0  0  0  0  0
    2.0000   -2.0336    0.0000 C   0  0  0  0  0  0  0  0  0  0  0  0
    3.3269   -3.1469    0.0000 C   0  0  0  0  0  0  0  0  0  0  0  0
   11.7626   -0.0067    0.0000 C   0  0  0  0  0  0  0  0  0  0  0  0
   12.6286    0.4933    0.0000 C   0  0  0  0  0  0  0  0  0  0  0  0
   11.7626   -1.0067    0.0000 C   0  0  0  0  0  0  0  0  0  0  0  0
   13.4946   -0.0067    0.0000 C   0  0  0  0  0  0  0  0  0  0  0  0
   12.6286   -1.5067    0.0000 C   0  0  0  0  0  0  0  0  0  0  0  0
   13.4946   -1.0067    0.0000 C   0  0  0  0  0  0  0  0  0  0  0  0
   15.2267   -0.0067    0.0000 C   0  0  0  0  0  0  0  0  0  0  0  0
    5.6870    0.1377    0.0000 H   0  0  0  0  0  0  0  0  0  0  0  0
    5.6870   -0.1511    0.0000 H   0  0  0  0  0  0  0  0  0  0  0  0
    4.6352    0.8353    0.0000 H   0  0  0  0  0  0  0  0  0  0  0  0
    5.1475    0.2247    0.0000 H   0  0  0  0  0  0  0  0  0  0  0  0
    7.2362   -1.7477    0.0000 H   0  0  0  0  0  0  0  0  0  0  0  0
    5.7015    1.8201    0.0000 H   0  0  0  0  0  0  0  0  0  0  0  0
    5.1892    2.4307    0.0000 H   0  0  0  0  0  0  0  0  0  0  0  0
    8.4764    1.5156    0.0000 H   0  0  0  0  0  0  0  0  0  0  0  0
    9.3861   -0.5146    0.0000 H   0  0  0  0  0  0  0  0  0  0  0  0
    6.2177   -2.2728    0.0000 H   0  0  0  0  0  0  0  0  0  0  0  0
    6.8377   -2.8928    0.0000 H   0  0  0  0  0  0  0  0  0  0  0  0
    7.4577   -2.2728    0.0000 H   0  0  0  0  0  0  0  0  0  0  0  0
    3.5218    2.1621    0.0000 H   0  0  0  0  0  0  0  0  0  0  0  0
    4.0342    1.5515    0.0000 H   0  0  0  0  0  0  0  0  0  0  0  0
    9.6131    1.6606    0.0000 H   0  0  0  0  0  0  0  0  0  0  0  0
    9.2426    2.4553    0.0000 H   0  0  0  0  0  0  0  0  0  0  0  0
    8.4479    2.0847    0.0000 H   0  0  0  0  0  0  0  0  0  0  0  0
   10.3405   -0.5437    0.0000 H   0  0  0  0  0  0  0  0  0  0  0  0
    3.8396   -0.8585    0.0000 H   0  0  0  0  0  0  0  0  0  0  0  0
    3.0907   -1.1312    0.0000 H   0  0  0  0  0  0  0  0  0  0  0  0
    4.5788    3.2546    0.0000 H   0  0  0  0  0  0  0  0  0  0  0  0
    3.8605    3.7575    0.0000 H   0  0  0  0  0  0  0  0  0  0  0  0
    3.3576    3.0393    0.0000 H   0  0  0  0  0  0  0  0  0  0  0  0
    2.5863   -2.6822    0.0000 H   0  0  0  0  0  0  0  0  0  0  0  0
    2.1077   -1.4230    0.0000 H   0  0  0  0  0  0  0  0  0  0  0  0
    1.3894   -1.9259    0.0000 H   0  0  0  0  0  0  0  0  0  0  0  0
    1.8923   -2.6441    0.0000 H   0  0  0  0  0  0  0  0  0  0  0  0
    2.7443   -3.3590    0.0000 H   0  0  0  0  0  0  0  0  0  0  0  0
    3.5390   -3.7295    0.0000 H   0  0  0  0  0  0  0  0  0  0  0  0
    3.9095   -2.9349    0.0000 H   0  0  0  0  0  0  0  0  0  0  0  0
   11.2256   -1.3167    0.0000 H   0  0  0  0  0  0  0  0  0  0  0  0
   12.6286   -2.1267    0.0000 H   0  0  0  0  0  0  0  0  0  0  0  0
   14.0316   -1.3167    0.0000 H   0  0  0  0  0  0  0  0  0  0  0  0
   13.1655    1.8033    0.0000 H   0  0  0  0  0  0  0  0  0  0  0  0
   14.3606    1.1133    0.0000 H   0  0  0  0  0  0  0  0  0  0  0  0
   15.2267   -0.6267    0.0000 H   0  0  0  0  0  0  0  0  0  0  0  0
 13  1  1  1  0  0  0
  1 24  1  0  0  0  0
  2 15  1  0  0  0  0
  2 22  1  0  0  0  0
  3 17  1  0  0  0  0
  3 18  1  0  0  0  0
  4 17  2  0  0  0  0
  5 22  2  0  0  0  0
  6 24  2  0  0  0  0
  7 28  2  0  0  0  0
  8 32  1  0  0  0  0
  8 71  1  0  0  0  0
  9 37  2  0  0  0  0
 10 19  1  0  0  0  0
 10 28  1  0  0  0  0
 10 55  1  0  0  0  0
 11 34  1  0  0  0  0
 11 37  1  0  0  0  0
 11 72  1  0  0  0  0
 12 13  1  0  0  0  0
 12 14  1  1  0  0  0
 12 17  1  0  0  0  0
 12 38  1  0  0  0  0
 13 15  1  0  0  0  0
 13 39  1  0  0  0  0
 14 16  1  0  0  0  0
 14 40  1  0  0  0  0
 14 41  1  0  0  0  0
 15 20  1  1  0  0  0
 15 42  1  0  0  0  0
 16 21  1  0  0  0  0
 16 43  1  0  0  0  0
 16 44  1  0  0  0  0
 18 19  1  0  0  0  0
 18 23  1  0  0  0  0
 18 45  1  0  0  0  0
 19 22  1  0  0  0  0
 19 46  1  0  0  0  0
 20 47  1  0  0  0  0
 20 48  1  0  0  0  0
 20 49  1  0  0  0  0
 21 26  1  0  0  0  0
 21 50  1  0  0  0  0
 21 51  1  0  0  0  0
 23 52  1  0  0  0  0
 23 53  1  0  0  0  0
 23 54  1  0  0  0  0
 24 25  1  0  0  0  0
 25 27  1  0  0  0  0
 25 56  1  0  0  0  0
 25 57  1  0  0  0  0
 26 58  1  0  0  0  0
 26 59  1  0  0  0  0
 26 60  1  0  0  0  0
 27 29  1  0  0  0  0
 27 30  1  0  0  0  0
 27 61  1  0  0  0  0
 28 31  1  0  0  0  0
 29 62  1  0  0  0  0
 29 63  1  0  0  0  0
 29 64  1  0  0  0  0
 30 65  1  0  0  0  0
 30 66  1  0  0  0  0
 30 67  1  0  0  0  0
 31 32  2  0  0  0  0
 31 33  1  0  0  0  0
 32 34  1  0  0  0  0
 33 35  2  0  0  0  0
 33 68  1  0  0  0  0
 34 36  2  0  0  0  0
 35 36  1  0  0  0  0
 35 69  1  0  0  0  0
 36 70  1  0  0  0  0
 37 73  1  0  0  0  0
M  END
> <PUBCHEM_COMPOUND_CID>
10652

> <PUBCHEM_COMPOUND_CANONICALIZED>
1

> <PUBCHEM_CACTVS_COMPLEXITY>
818

> <PUBCHEM_CACTVS_HBOND_ACCEPTOR>
9

> <PUBCHEM_CACTVS_HBOND_DONOR>
3

> <PUBCHEM_CACTVS_ROTATABLE_BOND>
10

> <PUBCHEM_CACTVS_SUBSKEYS>
AAADcfB7PAAAAAAAAAAAAAAAAAAAAAAAAAAwAAAAAAAAAEgBAAAAHgAQCAAADTzhmAYyzoLABgCIAiXS2ACCAAAlIgAIiIGNbMgLJjbSlbOHcUhn9hHa2YfeyKCOAAAAQAAIEAAAAACAABAgAAAAAAAAAA==

> <PUBCHEM_IUPAC_OPENEYE_NAME>
[(6S,7S,8R)-8-butyl-3-[(3-formamido-2-hydroxy-benzoyl)amino]-2,6-dimethyl-4,9-dioxo-1,5-dioxonan-7-yl] 3-methylbutanoate

> <PUBCHEM_IUPAC_CAS_NAME>
3-methylbutanoic acid [(6S,7S,8R)-8-butyl-3-[[(3-formamido-2-hydroxyphenyl)-oxomethyl]amino]-2,6-dimethyl-4,9-dioxo-1,5-dioxonan-7-yl] ester

> <PUBCHEM_IUPAC_NAME>
[(6S,7S,8R)-8-butyl-3-[(3-formamido-2-hydroxybenzoyl)amino]-2,6-dimethyl-4,9-dioxo-1,5-dioxonan-7-yl] 3-methylbutanoate

> <PUBCHEM_IUPAC_SYSTEMATIC_NAME>
[(6S,7S,8R)-8-butyl-3-[(3-formamido-2-oxidanyl-phenyl)carbonylamino]-2,6-dimethyl-4,9-bis(oxidanylidene)-1,5-dioxonan-7-yl] 3-methylbutanoate

> <PUBCHEM_IUPAC_TRADITIONAL_NAME>
3-methylbutyric acid [(6S,7S,8R)-8-butyl-3-[(3-formamido-2-hydroxy-benzoyl)amino]-4,9-diketo-2,6-dimethyl-1,5-dioxonan-7-yl] ester

> <PUBCHEM_IUPAC_INCHI>
InChI=1S/C26H36N2O9/c1-6-7-9-18-23(37-20(30)12-14(2)3)16(5)36-26(34)21(15(4)35-25(18)33)28-24(32)17-10-8-11-19(22(17)31)27-13-29/h8,10-11,13-16,18,21,23,31H,6-7,9,12H2,1-5H3,(H,27,29)(H,28,32)/t15?,16-,18+,21?,23+/m0/s1

> <PUBCHEM_IUPAC_INCHIKEY>
PVEVXUMVNWSNIG-PVWHJNASSA-N

> <PUBCHEM_XLOGP3_AA>
4.2

> <PUBCHEM_EXACT_MASS>
520.242081

> <PUBCHEM_MOLECULAR_FORMULA>
C26H36N2O9

> <PUBCHEM_MOLECULAR_WEIGHT>
520.57204

> <PUBCHEM_OPENEYE_CAN_SMILES>
CCCCC1C(C(OC(=O)C(C(OC1=O)C)NC(=O)C2=C(C(=CC=C2)NC=O)O)C)OC(=O)CC(C)C

> <PUBCHEM_OPENEYE_ISO_SMILES>
CCCC[C@@H]1[C@@H]([C@@H](OC(=O)C(C(OC1=O)C)NC(=O)C2=C(C(=CC=C2)NC=O)O)C)OC(=O)CC(C)C

> <PUBCHEM_CACTVS_TPSA>
157

> <PUBCHEM_MONOISOTOPIC_WEIGHT>
520.242081

> <PUBCHEM_TOTAL_CHARGE>
0

> <PUBCHEM_HEAVY_ATOM_COUNT>
37

> <PUBCHEM_ATOM_DEF_STEREO_COUNT>
3

> <PUBCHEM_ATOM_UDEF_STEREO_COUNT>
2

> <PUBCHEM_BOND_DEF_STEREO_COUNT>
0

> <PUBCHEM_BOND_UDEF_STEREO_COUNT>
0

> <PUBCHEM_ISOTOPIC_ATOM_COUNT>
0

> <PUBCHEM_COMPONENT_COUNT>
1

> <PUBCHEM_CACTVS_TAUTO_COUNT>
124

> <PUBCHEM_COORDINATE_TYPE>
1
5
255

> <PUBCHEM_BONDANNOTATIONS>
13  1  5
19  10  3
12  14  5
15  20  5
18  23  3
31  32  8
31  33  8
32  34  8
33  35  8
34  36  8
35  36  8

$$$$

