9101
  -OEChem-06261203243D

 13 14  0     1  0  0  0  0  0999 V2000
    0.3411    0.7466   -0.3141 C   0  0  2  0  0  0  0  0  0  0  0  0
    0.3411   -0.7467   -0.3139 C   0  0  1  0  0  0  0  0  0  0  0  0
    1.4528    0.0000    0.3510 C   0  0  0  0  0  0  0  0  0  0  0  0
   -1.0674    0.7718    0.1386 C   0  0  0  0  0  0  0  0  0  0  0  0
   -1.0676   -0.7717    0.1385 C   0  0  0  0  0  0  0  0  0  0  0  0
    0.4988    1.2520   -1.2565 H   0  0  0  0  0  0  0  0  0  0  0  0
    0.4989   -1.2522   -1.2563 H   0  0  0  0  0  0  0  0  0  0  0  0
    2.4229    0.0000   -0.1301 H   0  0  0  0  0  0  0  0  0  0  0  0
    1.4919    0.0000    1.4333 H   0  0  0  0  0  0  0  0  0  0  0  0
   -1.7727    1.2230   -0.5669 H   0  0  0  0  0  0  0  0  0  0  0  0
   -1.2207    1.2230    1.1242 H   0  0  0  0  0  0  0  0  0  0  0  0
   -1.2211   -1.2232    1.1241 H   0  0  0  0  0  0  0  0  0  0  0  0
   -1.7727   -1.2227   -0.5673 H   0  0  0  0  0  0  0  0  0  0  0  0
  1  2  1  0  0  0  0
  1  3  1  0  0  0  0
  1  4  1  0  0  0  0
  1  6  1  0  0  0  0
  2  3  1  0  0  0  0
  2  5  1  0  0  0  0
  2  7  1  0  0  0  0
  3  8  1  0  0  0  0
  3  9  1  0  0  0  0
  4  5  1  0  0  0  0
  4 10  1  0  0  0  0
  4 11  1  0  0  0  0
  5 12  1  0  0  0  0
  5 13  1  0  0  0  0
M  END
> <PUBCHEM_COMPOUND_CID>
9101

> <PUBCHEM_CONFORMER_RMSD>
0.4

> <PUBCHEM_CONFORMER_DIVERSEORDER>
1

> <PUBCHEM_MMFF94_PARTIAL_CHARGES>
9
1 -0.18
2 -0.18
3 -0.2
4 0.08
5 0.08
6 0.1
7 0.1
8 0.1
9 0.1

> <PUBCHEM_EFFECTIVE_ROTOR_COUNT>
0.6

> <PUBCHEM_PHARMACOPHORE_FEATURES>
1
5 1 2 3 4 5 rings

> <PUBCHEM_HEAVY_ATOM_COUNT>
5

> <PUBCHEM_ATOM_DEF_STEREO_COUNT>
0

> <PUBCHEM_ATOM_UDEF_STEREO_COUNT>
2

> <PUBCHEM_BOND_DEF_STEREO_COUNT>
0

> <PUBCHEM_BOND_UDEF_STEREO_COUNT>
0

> <PUBCHEM_ISOTOPIC_ATOM_COUNT>
0

> <PUBCHEM_COMPONENT_COUNT>
1

> <PUBCHEM_CACTVS_TAUTO_COUNT>
1

> <PUBCHEM_CONFORMER_ID>
0000238D00000001

> <PUBCHEM_MMFF94_ENERGY>
12.2792

> <PUBCHEM_FEATURE_SELFOVERLAP>
5.074

> <PUBCHEM_SHAPE_FINGERPRINT>
20096714 4 18335419122771988792
21015797 1 9147854812305469325
21040471 1 18194678396048262301
29004967 10 14620790522295333688
5943 1 10910520226796893823

> <PUBCHEM_SHAPE_MULTIPOLES>
102.9
1.54
1.08
0.69
0.14
0
0
0
0.2
-0.18
-0.04
0.04
0
0

> <PUBCHEM_SHAPE_SELFOVERLAP>
210.497

> <PUBCHEM_SHAPE_VOLUME>
62.8

> <PUBCHEM_COORDINATE_TYPE>
2
5
10

$$$$

