9853
  -OEChem-06261204083D

 21 20  0     0  0  0  0  0  0999 V2000
   -4.4543    0.6024   -0.1443 S   0  0  0  0  0  0  0  0  0  0  0  0
    3.4729    1.0224    0.3648 F   0  0  0  0  0  0  0  0  0  0  0  0
   -0.4775   -0.5836    0.1792 C   0  0  0  0  0  0  0  0  0  0  0  0
    0.8301    0.0882   -0.2463 C   0  0  0  0  0  0  0  0  0  0  0  0
   -1.7248    0.2397   -0.1614 C   0  0  0  0  0  0  0  0  0  0  0  0
    2.0347   -0.8077    0.0519 C   0  0  0  0  0  0  0  0  0  0  0  0
   -3.0216   -0.4264    0.2919 C   0  0  0  0  0  0  0  0  0  0  0  0
    3.3405   -0.1350   -0.3358 C   0  0  0  0  0  0  0  0  0  0  0  0
   -0.4527   -0.7681    1.2605 H   0  0  0  0  0  0  0  0  0  0  0  0
   -0.5567   -1.5638   -0.3074 H   0  0  0  0  0  0  0  0  0  0  0  0
    0.7964    0.3108   -1.3196 H   0  0  0  0  0  0  0  0  0  0  0  0
    0.9349    1.0447    0.2794 H   0  0  0  0  0  0  0  0  0  0  0  0
   -1.7505    0.4038   -1.2464 H   0  0  0  0  0  0  0  0  0  0  0  0
   -1.6306    1.2265    0.3102 H   0  0  0  0  0  0  0  0  0  0  0  0
    1.9399   -1.7582   -0.4849 H   0  0  0  0  0  0  0  0  0  0  0  0
    2.0565   -1.0313    1.1249 H   0  0  0  0  0  0  0  0  0  0  0  0
   -3.1378   -1.4037   -0.1870 H   0  0  0  0  0  0  0  0  0  0  0  0
   -3.0182   -0.5774    1.3759 H   0  0  0  0  0  0  0  0  0  0  0  0
    3.3677    0.1082   -1.4019 H   0  0  0  0  0  0  0  0  0  0  0  0
    4.1952   -0.7740   -0.0968 H   0  0  0  0  0  0  0  0  0  0  0  0
   -4.1185    1.6625    0.6053 H   0  0  0  0  0  0  0  0  0  0  0  0
  1  7  1  0  0  0  0
  1 21  1  0  0  0  0
  2  8  1  0  0  0  0
  3  4  1  0  0  0  0
  3  5  1  0  0  0  0
  3  9  1  0  0  0  0
  3 10  1  0  0  0  0
  4  6  1  0  0  0  0
  4 11  1  0  0  0  0
  4 12  1  0  0  0  0
  5  7  1  0  0  0  0
  5 13  1  0  0  0  0
  5 14  1  0  0  0  0
  6  8  1  0  0  0  0
  6 15  1  0  0  0  0
  6 16  1  0  0  0  0
  7 17  1  0  0  0  0
  7 18  1  0  0  0  0
  8 19  1  0  0  0  0
  8 20  1  0  0  0  0
M  END
> <PUBCHEM_COMPOUND_CID>
9853

> <PUBCHEM_CONFORMER_RMSD>
0.6

> <PUBCHEM_CONFORMER_DIVERSEORDER>
1
46
50
58
2
22
72
48
51
11
53
21
12
61
24
47
78
6
69
18
16
5
15
32
81
38
82
54
80
19
56
25
62
59
35
33
36
20
44
71
42
75
52
73
31
55
29
26
41
45
66
70
37
60
13
77
63
79
49
34
74
10
9
40
23
30
64
17
76
57
7
68
3
14
43
4
27
8
39
67
65
28

> <PUBCHEM_MMFF94_PARTIAL_CHARGES>
5
1 -0.41
2 -0.34
21 0.18
7 0.23
8 0.34

> <PUBCHEM_EFFECTIVE_ROTOR_COUNT>
5

> <PUBCHEM_PHARMACOPHORE_FEATURES>
1
4 3 4 5 6 hydrophobe

> <PUBCHEM_HEAVY_ATOM_COUNT>
8

> <PUBCHEM_ATOM_DEF_STEREO_COUNT>
0

> <PUBCHEM_ATOM_UDEF_STEREO_COUNT>
0

> <PUBCHEM_BOND_DEF_STEREO_COUNT>
0

> <PUBCHEM_BOND_UDEF_STEREO_COUNT>
0

> <PUBCHEM_ISOTOPIC_ATOM_COUNT>
0

> <PUBCHEM_COMPONENT_COUNT>
1

> <PUBCHEM_CACTVS_TAUTO_COUNT>
1

> <PUBCHEM_CONFORMER_ID>
0000267D00000001

> <PUBCHEM_MMFF94_ENERGY>
0.7295

> <PUBCHEM_FEATURE_SELFOVERLAP>
5.074

> <PUBCHEM_SHAPE_FINGERPRINT>
11062470 55 18410573998373963175
14325111 11 18411980269324548171
14390081 3 18410293609960713872
177051 138 9871750195479468553
17834076 25 17988921180167799399
18342897 14 16486970695844659797
190213 19 17095240323850401647
20645477 70 18187926252261430967
20719005 15 18411981369089227639
21293036 1 16370727028179403505
5460574 1 8070027757232012774

> <PUBCHEM_SHAPE_MULTIPOLES>
161.21
8.17
0.91
0.67
2.71
0.03
0.01
1.82
0.01
-0.17
-0.06
0
0.01
0.25

> <PUBCHEM_SHAPE_SELFOVERLAP>
272.619

> <PUBCHEM_SHAPE_VOLUME>
109.6

> <PUBCHEM_COORDINATE_TYPE>
2
5
10

$$$$

