47205743
  -OEChem-06241223002D

 33 33  0     0  0  0  0  0  0999 V2000
    2.8090    2.1546    0.0000 S   0  0  0  0  0  0  0  0  0  0  0  0
    8.7891   -0.7590    0.0000 O   0  0  0  0  0  0  0  0  0  0  0  0
    5.1928   -0.5011    0.0000 O   0  0  0  0  0  0  0  0  0  0  0  0
    5.3122    3.1025    0.0000 O   0  0  0  0  0  0  0  0  0  0  0  0
    7.0949   -1.1191    0.0000 N   0  0  0  0  0  0  0  0  0  0  0  0
    5.7281    1.1462    0.0000 N   0  0  0  0  0  0  0  0  0  0  0  0
    4.7770    1.4552    0.0000 N   0  0  0  0  0  0  0  0  0  0  0  0
    8.2539   -2.4063    0.0000 C   0  0  0  0  0  0  0  0  0  0  0  0
    9.2050   -2.7153    0.0000 C   0  0  0  0  0  0  0  0  0  0  0  0
    8.0460   -1.4281    0.0000 C   0  0  0  0  0  0  0  0  0  0  0  0
    6.8870   -0.1410    0.0000 C   0  0  0  0  0  0  0  0  0  0  0  0
    9.4129   -3.6934    0.0000 C   0  0  0  0  0  0  0  0  0  0  0  0
    5.9360    0.1681    0.0000 C   0  0  0  0  0  0  0  0  0  0  0  0
    3.6180    2.7424    0.0000 C   0  0  0  0  0  0  0  0  0  0  0  0
    4.5691    2.4334    0.0000 C   0  0  0  0  0  0  0  0  0  0  0  0
    3.3090    3.6934    0.0000 C   0  0  0  0  0  0  0  0  0  0  0  0
    2.3090    3.6934    0.0000 C   0  0  0  0  0  0  0  0  0  0  0  0
    2.0000    2.7424    0.0000 C   0  0  0  0  0  0  0  0  0  0  0  0
    7.6343   -2.4279    0.0000 H   0  0  0  0  0  0  0  0  0  0  0  0
    8.1676   -3.0202    0.0000 H   0  0  0  0  0  0  0  0  0  0  0  0
    9.8246   -2.6936    0.0000 H   0  0  0  0  0  0  0  0  0  0  0  0
    9.2912   -2.1013    0.0000 H   0  0  0  0  0  0  0  0  0  0  0  0
    7.5066   -0.1193    0.0000 H   0  0  0  0  0  0  0  0  0  0  0  0
    6.9733    0.4730    0.0000 H   0  0  0  0  0  0  0  0  0  0  0  0
    6.6342   -1.5340    0.0000 H   0  0  0  0  0  0  0  0  0  0  0  0
    8.8064   -3.8223    0.0000 H   0  0  0  0  0  0  0  0  0  0  0  0
    9.5418   -4.2999    0.0000 H   0  0  0  0  0  0  0  0  0  0  0  0
   10.0193   -3.5645    0.0000 H   0  0  0  0  0  0  0  0  0  0  0  0
    6.1888    1.5611    0.0000 H   0  0  0  0  0  0  0  0  0  0  0  0
    4.3162    1.0404    0.0000 H   0  0  0  0  0  0  0  0  0  0  0  0
    3.6734    4.1950    0.0000 H   0  0  0  0  0  0  0  0  0  0  0  0
    1.9446    4.1950    0.0000 H   0  0  0  0  0  0  0  0  0  0  0  0
    1.4103    2.5508    0.0000 H   0  0  0  0  0  0  0  0  0  0  0  0
  1 14  1  0  0  0  0
  1 18  1  0  0  0  0
  2 10  2  0  0  0  0
  3 13  2  0  0  0  0
  4 15  2  0  0  0  0
  5 10  1  0  0  0  0
  5 11  1  0  0  0  0
  5 25  1  0  0  0  0
  6  7  1  0  0  0  0
  6 13  1  0  0  0  0
  6 29  1  0  0  0  0
  7 15  1  0  0  0  0
  7 30  1  0  0  0  0
  8  9  1  0  0  0  0
  8 10  1  0  0  0  0
  8 19  1  0  0  0  0
  8 20  1  0  0  0  0
  9 12  1  0  0  0  0
  9 21  1  0  0  0  0
  9 22  1  0  0  0  0
 11 13  1  0  0  0  0
 11 23  1  0  0  0  0
 11 24  1  0  0  0  0
 12 26  1  0  0  0  0
 12 27  1  0  0  0  0
 12 28  1  0  0  0  0
 14 15  1  0  0  0  0
 14 16  2  0  0  0  0
 16 17  1  0  0  0  0
 16 31  1  0  0  0  0
 17 18  2  0  0  0  0
 17 32  1  0  0  0  0
 18 33  1  0  0  0  0
M  END
> <PUBCHEM_COMPOUND_CID>
47205743

> <PUBCHEM_COMPOUND_CANONICALIZED>
1

> <PUBCHEM_CACTVS_COMPLEXITY>
323

> <PUBCHEM_CACTVS_HBOND_ACCEPTOR>
4

> <PUBCHEM_CACTVS_HBOND_DONOR>
3

> <PUBCHEM_CACTVS_ROTATABLE_BOND>
5

> <PUBCHEM_CACTVS_SUBSKEYS>
AAADccBzMABAAAAAAAAAAAAAAAAAASAAAAAAAAAAAAAAAAABgAAAHgQYAAAACADF0ASyAYLiAAiMACFSEACDAIAkCBJaqJmIBMgIYDKglTGUAQBglgCoiYYYAAAAAAAAAAAAAAAAAAAAAAAAAAAAAAAAAA==

> <PUBCHEM_IUPAC_OPENEYE_NAME>
N-[2-oxo-2-[2-(thiophene-2-carbonyl)hydrazino]ethyl]butanamide

> <PUBCHEM_IUPAC_CAS_NAME>
N-[2-oxo-2-[[oxo(thiophen-2-yl)methyl]hydrazo]ethyl]butanamide

> <PUBCHEM_IUPAC_NAME>
N-[2-oxo-2-[2-(thiophene-2-carbonyl)hydrazinyl]ethyl]butanamide

> <PUBCHEM_IUPAC_SYSTEMATIC_NAME>
N-[2-oxidanylidene-2-(2-thiophen-2-ylcarbonylhydrazinyl)ethyl]butanamide

> <PUBCHEM_IUPAC_TRADITIONAL_NAME>
N-[2-keto-2-[N'-(2-thenoyl)hydrazino]ethyl]butyramide

> <PUBCHEM_IUPAC_INCHI>
InChI=1S/C11H15N3O3S/c1-2-4-9(15)12-7-10(16)13-14-11(17)8-5-3-6-18-8/h3,5-6H,2,4,7H2,1H3,(H,12,15)(H,13,16)(H,14,17)

> <PUBCHEM_IUPAC_INCHIKEY>
MMIHVZOKASKIQX-UHFFFAOYSA-N

> <PUBCHEM_XLOGP3_AA>
0.9

> <PUBCHEM_EXACT_MASS>
269.083412

> <PUBCHEM_MOLECULAR_FORMULA>
C11H15N3O3S

> <PUBCHEM_MOLECULAR_WEIGHT>
269.3201

> <PUBCHEM_OPENEYE_CAN_SMILES>
CCCC(=O)NCC(=O)NNC(=O)C1=CC=CS1

> <PUBCHEM_OPENEYE_ISO_SMILES>
CCCC(=O)NCC(=O)NNC(=O)C1=CC=CS1

> <PUBCHEM_CACTVS_TPSA>
116

> <PUBCHEM_MONOISOTOPIC_WEIGHT>
269.083412

> <PUBCHEM_TOTAL_CHARGE>
0

> <PUBCHEM_HEAVY_ATOM_COUNT>
18

> <PUBCHEM_ATOM_DEF_STEREO_COUNT>
0

> <PUBCHEM_ATOM_UDEF_STEREO_COUNT>
0

> <PUBCHEM_BOND_DEF_STEREO_COUNT>
0

> <PUBCHEM_BOND_UDEF_STEREO_COUNT>
0

> <PUBCHEM_ISOTOPIC_ATOM_COUNT>
0

> <PUBCHEM_COMPONENT_COUNT>
1

> <PUBCHEM_CACTVS_TAUTO_COUNT>
8

> <PUBCHEM_COORDINATE_TYPE>
1
5
255

> <PUBCHEM_BONDANNOTATIONS>
1  14  8
1  18  8
14  16  8
16  17  8
17  18  8

$$$$

