3761
  -OEChem-06251223392D

 55 58  0     1  0  0  0  0  0999 V2000
    4.5841   -2.0841    0.0000 O   0  0  0  0  0  0  0  0  0  0  0  0
    7.2342   -0.5356    0.0000 O   0  0  0  0  0  0  0  0  0  0  0  0
    4.6361    0.9644    0.0000 O   0  0  0  0  0  0  0  0  0  0  0  0
    5.4803    2.4958    0.0000 O   0  0  0  0  0  0  0  0  0  0  0  0
    9.0202    2.5095    0.0000 O   0  0  0  0  0  0  0  0  0  0  0  0
    6.4213   -5.2324    0.0000 O   0  0  0  0  0  0  0  0  0  0  0  0
    5.5021   -0.5356    0.0000 C   0  0  0  0  0  0  0  0  0  0  0  0
    4.5921   -1.0425    0.0000 C   0  0  3  0  0  0  0  0  0  0  0  0
    6.3681   -1.0356    0.0000 C   0  0  0  0  0  0  0  0  0  0  0  0
    6.3681    0.9644    0.0000 C   0  0  0  0  0  0  0  0  0  0  0  0
    5.5021    0.4644    0.0000 C   0  0  0  0  0  0  0  0  0  0  0  0
    6.3842   -2.0771    0.0000 C   0  0  0  0  0  0  0  0  0  0  0  0
    7.2342    0.4644    0.0000 C   0  0  0  0  0  0  0  0  0  0  0  0
    5.4862   -2.6049    0.0000 C   0  0  0  0  0  0  0  0  0  0  0  0
    6.3521    2.0059    0.0000 C   0  0  0  0  0  0  0  0  0  0  0  0
    3.7319   -0.5325    0.0000 C   0  0  0  0  0  0  0  0  0  0  0  0
    7.2501    2.5336    0.0000 C   0  0  0  0  0  0  0  0  0  0  0  0
    8.1442    0.9712    0.0000 C   0  0  0  0  0  0  0  0  0  0  0  0
    7.3361   -2.5978    0.0000 C   0  0  0  0  0  0  0  0  0  0  0  0
    8.1522    2.0128    0.0000 C   0  0  0  0  0  0  0  0  0  0  0  0
    5.4778   -3.6899    0.0000 C   0  0  0  0  0  0  0  0  0  0  0  0
    7.2463    3.5336    0.0000 C   0  0  0  0  0  0  0  0  0  0  0  0
    2.8602   -1.0225    0.0000 C   0  0  0  0  0  0  0  0  0  0  0  0
    7.3529   -3.6826    0.0000 C   0  0  0  0  0  0  0  0  0  0  0  0
    6.4174   -4.2324    0.0000 C   0  0  0  0  0  0  0  0  0  0  0  0
    8.1104    4.0370    0.0000 C   0  0  0  0  0  0  0  0  0  0  0  0
    2.0000   -0.5125    0.0000 C   0  0  0  0  0  0  0  0  0  0  0  0
    2.8486   -2.0224    0.0000 C   0  0  0  0  0  0  0  0  0  0  0  0
    8.1065    5.0369    0.0000 C   0  0  0  0  0  0  0  0  0  0  0  0
    8.9706    5.5403    0.0000 C   0  0  0  0  0  0  0  0  0  0  0  0
    7.2386    5.5336    0.0000 C   0  0  0  0  0  0  0  0  0  0  0  0
    4.0522   -1.3473    0.0000 H   0  0  0  0  0  0  0  0  0  0  0  0
    3.7391    0.0875    0.0000 H   0  0  0  0  0  0  0  0  0  0  0  0
    8.6775    0.6550    0.0000 H   0  0  0  0  0  0  0  0  0  0  0  0
    7.8670   -2.2775    0.0000 H   0  0  0  0  0  0  0  0  0  0  0  0
    7.0320    4.1154    0.0000 H   0  0  0  0  0  0  0  0  0  0  0  0
    6.6361    3.4236    0.0000 H   0  0  0  0  0  0  0  0  0  0  0  0
    4.9397   -3.9978    0.0000 H   0  0  0  0  0  0  0  0  0  0  0  0
    7.8933   -3.9864    0.0000 H   0  0  0  0  0  0  0  0  0  0  0  0
    4.6361    1.5844    0.0000 H   0  0  0  0  0  0  0  0  0  0  0  0
    8.6485    3.7290    0.0000 H   0  0  0  0  0  0  0  0  0  0  0  0
    2.3162    0.0208    0.0000 H   0  0  0  0  0  0  0  0  0  0  0  0
    1.4667   -0.1963    0.0000 H   0  0  0  0  0  0  0  0  0  0  0  0
    1.6838   -1.0458    0.0000 H   0  0  0  0  0  0  0  0  0  0  0  0
    2.2287   -2.0152    0.0000 H   0  0  0  0  0  0  0  0  0  0  0  0
    2.8415   -2.6423    0.0000 H   0  0  0  0  0  0  0  0  0  0  0  0
    3.4686   -2.0296    0.0000 H   0  0  0  0  0  0  0  0  0  0  0  0
    5.4732    3.1158    0.0000 H   0  0  0  0  0  0  0  0  0  0  0  0
    6.9594   -5.5403    0.0000 H   0  0  0  0  0  0  0  0  0  0  0  0
    9.2827    5.0045    0.0000 H   0  0  0  0  0  0  0  0  0  0  0  0
    9.5063    5.8523    0.0000 H   0  0  0  0  0  0  0  0  0  0  0  0
    8.6585    6.0760    0.0000 H   0  0  0  0  0  0  0  0  0  0  0  0
    7.5465    6.0717    0.0000 H   0  0  0  0  0  0  0  0  0  0  0  0
    6.7004    5.8415    0.0000 H   0  0  0  0  0  0  0  0  0  0  0  0
    6.9306    4.9955    0.0000 H   0  0  0  0  0  0  0  0  0  0  0  0
  1  8  1  0  0  0  0
  1 14  1  0  0  0  0
  2  9  1  0  0  0  0
  2 13  1  0  0  0  0
  3 11  1  0  0  0  0
  3 40  1  0  0  0  0
  4 15  1  0  0  0  0
  4 48  1  0  0  0  0
  5 20  2  0  0  0  0
  6 25  1  0  0  0  0
  6 49  1  0  0  0  0
  7  8  1  0  0  0  0
  7  9  2  0  0  0  0
  7 11  1  0  0  0  0
  8 16  1  0  0  0  0
  8 32  1  0  0  0  0
  9 12  1  0  0  0  0
 10 11  2  0  0  0  0
 10 13  1  0  0  0  0
 10 15  1  0  0  0  0
 12 14  2  0  0  0  0
 12 19  1  0  0  0  0
 13 18  2  0  0  0  0
 14 21  1  0  0  0  0
 15 17  2  0  0  0  0
 16 23  2  0  0  0  0
 16 33  1  0  0  0  0
 17 20  1  0  0  0  0
 17 22  1  0  0  0  0
 18 20  1  0  0  0  0
 18 34  1  0  0  0  0
 19 24  2  0  0  0  0
 19 35  1  0  0  0  0
 21 25  2  0  0  0  0
 21 38  1  0  0  0  0
 22 26  1  0  0  0  0
 22 36  1  0  0  0  0
 22 37  1  0  0  0  0
 23 27  1  0  0  0  0
 23 28  1  0  0  0  0
 24 25  1  0  0  0  0
 24 39  1  0  0  0  0
 26 29  2  0  0  0  0
 26 41  1  0  0  0  0
 27 42  1  0  0  0  0
 27 43  1  0  0  0  0
 27 44  1  0  0  0  0
 28 45  1  0  0  0  0
 28 46  1  0  0  0  0
 28 47  1  0  0  0  0
 29 30  1  0  0  0  0
 29 31  1  0  0  0  0
 30 50  1  0  0  0  0
 30 51  1  0  0  0  0
 30 52  1  0  0  0  0
 31 53  1  0  0  0  0
 31 54  1  0  0  0  0
 31 55  1  0  0  0  0
M  END
> <PUBCHEM_COMPOUND_CID>
3761

> <PUBCHEM_COMPOUND_CANONICALIZED>
1

> <PUBCHEM_CACTVS_COMPLEXITY>
995

> <PUBCHEM_CACTVS_HBOND_ACCEPTOR>
6

> <PUBCHEM_CACTVS_HBOND_DONOR>
3

> <PUBCHEM_CACTVS_ROTATABLE_BOND>
3

> <PUBCHEM_CACTVS_SUBSKEYS>
AAADceB4OAAAAAAAAAAAAAAAAAAAAAAAAAAwQIEAAAAAAACBAAAAGgAACAAADBSgmAIyBoAABgCIAqBSAAACCAAgIAAIiAEGCMgMJzKGMRqCeCClwBUIuQeA4CwOIAAACAAIAABAAAAQABAAAAAAAAAAAA==

> <PUBCHEM_IUPAC_OPENEYE_NAME>
3,7,8-trihydroxy-9-(3-methylbut-2-enyl)-6-(2-methylprop-1-enyl)-6H-chromeno[4,3-b]chromen-10-one

> <PUBCHEM_IUPAC_CAS_NAME>
3,7,8-trihydroxy-9-(3-methylbut-2-enyl)-6-(2-methylprop-1-enyl)-6H-[1]benzopyrano[4,3-b][1]benzopyran-10-one

> <PUBCHEM_IUPAC_NAME>
3,7,8-trihydroxy-9-(3-methylbut-2-enyl)-6-(2-methylprop-1-enyl)-6H-chromeno[4,3-b]chromen-10-one

> <PUBCHEM_IUPAC_SYSTEMATIC_NAME>
9-(3-methylbut-2-enyl)-6-(2-methylprop-1-enyl)-3,7,8-tris(oxidanyl)-6H-chromeno[4,3-b]chromen-10-one

> <PUBCHEM_IUPAC_TRADITIONAL_NAME>
3,7,8-trihydroxy-9-(3-methylbut-2-enyl)-6-(2-methylprop-1-enyl)-6H-chromeno[4,3-b]chromen-10-one

> <PUBCHEM_IUPAC_INCHI>
InChI=1S/C25H24O6/c1-12(2)5-7-15-17(27)11-20-21(23(15)28)24(29)22-19(9-13(3)4)30-18-10-14(26)6-8-16(18)25(22)31-20/h5-6,8-11,19,26,28-29H,7H2,1-4H3

> <PUBCHEM_IUPAC_INCHIKEY>
NTIYYIXBUVYZDE-UHFFFAOYSA-N

> <PUBCHEM_XLOGP3_AA>
4.3

> <PUBCHEM_EXACT_MASS>
420.157288

> <PUBCHEM_MOLECULAR_FORMULA>
C25H24O6

> <PUBCHEM_MOLECULAR_WEIGHT>
420.45446

> <PUBCHEM_OPENEYE_CAN_SMILES>
CC(=CCC1=C(C2=C(C3=C(C4=C(C=C(C=C4)O)OC3C=C(C)C)OC2=CC1=O)O)O)C

> <PUBCHEM_OPENEYE_ISO_SMILES>
CC(=CCC1=C(C2=C(C3=C(C4=C(C=C(C=C4)O)OC3C=C(C)C)OC2=CC1=O)O)O)C

> <PUBCHEM_CACTVS_TPSA>
96.2

> <PUBCHEM_MONOISOTOPIC_WEIGHT>
420.157288

> <PUBCHEM_TOTAL_CHARGE>
0

> <PUBCHEM_HEAVY_ATOM_COUNT>
31

> <PUBCHEM_ATOM_DEF_STEREO_COUNT>
0

> <PUBCHEM_ATOM_UDEF_STEREO_COUNT>
1

> <PUBCHEM_BOND_DEF_STEREO_COUNT>
0

> <PUBCHEM_BOND_UDEF_STEREO_COUNT>
0

> <PUBCHEM_ISOTOPIC_ATOM_COUNT>
0

> <PUBCHEM_COMPONENT_COUNT>
1

> <PUBCHEM_CACTVS_TAUTO_COUNT>
69

> <PUBCHEM_COORDINATE_TYPE>
1
5
255

> <PUBCHEM_BONDANNOTATIONS>
10  11  8
10  15  8
12  14  8
12  19  8
13  18  8
14  21  8
15  17  8
17  20  8
18  20  8
19  24  8
2  13  8
2  9  8
21  25  8
24  25  8
7  11  8
7  9  8
8  16  3

$$$$

