17396485
  -OEChem-06241222562D

 43 45  0     1  0  0  0  0  0999 V2000
    4.1933   -1.2693    0.0000 O   0  0  0  0  0  0  0  0  0  0  0  0
    5.9533    1.7792    0.0000 O   0  0  0  0  0  0  0  0  0  0  0  0
    7.0468    1.1156    0.0000 O   0  0  0  0  0  0  0  0  0  0  0  0
   12.3231   -0.0797    0.0000 O   0  0  0  0  0  0  0  0  0  0  0  0
   12.3231   -1.6892    0.0000 O   0  0  0  0  0  0  0  0  0  0  0  0
    4.2320    1.3180    0.0000 N   0  0  0  0  0  0  0  0  0  0  0  0
    5.3147    0.1156    0.0000 N   0  0  0  0  0  0  0  0  0  0  0  0
    7.9128   -0.3844    0.0000 N   0  0  0  0  0  0  0  0  0  0  0  0
    3.7320    0.4520    0.0000 C   0  0  3  0  0  0  0  0  0  0  0  0
    2.8660    0.9520    0.0000 C   0  0  0  0  0  0  0  0  0  0  0  0
    4.4012   -0.2912    0.0000 C   0  0  0  0  0  0  0  0  0  0  0  0
    2.9889   -0.2171    0.0000 C   0  0  0  0  0  0  0  0  0  0  0  0
    5.2102    1.1101    0.0000 C   0  0  0  0  0  0  0  0  0  0  0  0
    6.1808   -0.3844    0.0000 C   0  0  0  0  0  0  0  0  0  0  0  0
    2.0000    0.4520    0.0000 C   0  0  0  0  0  0  0  0  0  0  0  0
    7.0468    0.1156    0.0000 C   0  0  0  0  0  0  0  0  0  0  0  0
    8.7788    0.1156    0.0000 C   0  0  0  0  0  0  0  0  0  0  0  0
    9.6448   -0.3844    0.0000 C   0  0  0  0  0  0  0  0  0  0  0  0
   10.5109    0.1156    0.0000 C   0  0  0  0  0  0  0  0  0  0  0  0
   11.3769   -0.3844    0.0000 C   0  0  0  0  0  0  0  0  0  0  0  0
    9.6448   -1.3844    0.0000 C   0  0  0  0  0  0  0  0  0  0  0  0
   11.3769   -1.3844    0.0000 C   0  0  0  0  0  0  0  0  0  0  0  0
   10.5109   -1.8844    0.0000 C   0  0  0  0  0  0  0  0  0  0  0  0
   12.9067   -0.8844    0.0000 C   0  0  0  0  0  0  0  0  0  0  0  0
    3.2646    1.4269    0.0000 H   0  0  0  0  0  0  0  0  0  0  0  0
    2.4675    1.4269    0.0000 H   0  0  0  0  0  0  0  0  0  0  0  0
    3.9799    1.8844    0.0000 H   0  0  0  0  0  0  0  0  0  0  0  0
    2.5740    0.2436    0.0000 H   0  0  0  0  0  0  0  0  0  0  0  0
    2.5282   -0.6320    0.0000 H   0  0  0  0  0  0  0  0  0  0  0  0
    3.4038   -0.6779    0.0000 H   0  0  0  0  0  0  0  0  0  0  0  0
    5.7822   -0.8594    0.0000 H   0  0  0  0  0  0  0  0  0  0  0  0
    6.5793   -0.8594    0.0000 H   0  0  0  0  0  0  0  0  0  0  0  0
    1.6900    0.9889    0.0000 H   0  0  0  0  0  0  0  0  0  0  0  0
    1.4631    0.1420    0.0000 H   0  0  0  0  0  0  0  0  0  0  0  0
    2.3100   -0.0849    0.0000 H   0  0  0  0  0  0  0  0  0  0  0  0
    9.1774    0.5905    0.0000 H   0  0  0  0  0  0  0  0  0  0  0  0
    8.3803    0.5905    0.0000 H   0  0  0  0  0  0  0  0  0  0  0  0
    7.9128   -1.0044    0.0000 H   0  0  0  0  0  0  0  0  0  0  0  0
   10.5109    0.7356    0.0000 H   0  0  0  0  0  0  0  0  0  0  0  0
    9.1079   -1.6944    0.0000 H   0  0  0  0  0  0  0  0  0  0  0  0
   10.5109   -2.5044    0.0000 H   0  0  0  0  0  0  0  0  0  0  0  0
   13.3676   -1.2991    0.0000 H   0  0  0  0  0  0  0  0  0  0  0  0
   13.3676   -0.4697    0.0000 H   0  0  0  0  0  0  0  0  0  0  0  0
  1 11  2  0  0  0  0
  2 13  2  0  0  0  0
  3 16  2  0  0  0  0
  4 20  1  0  0  0  0
  4 24  1  0  0  0  0
  5 22  1  0  0  0  0
  5 24  1  0  0  0  0
  6  9  1  0  0  0  0
  6 13  1  0  0  0  0
  6 27  1  0  0  0  0
  7 11  1  0  0  0  0
  7 13  1  0  0  0  0
  7 14  1  0  0  0  0
  8 16  1  0  0  0  0
  8 17  1  0  0  0  0
  8 38  1  0  0  0  0
  9 10  1  0  0  0  0
  9 11  1  0  0  0  0
  9 12  1  0  0  0  0
 10 15  1  0  0  0  0
 10 25  1  0  0  0  0
 10 26  1  0  0  0  0
 12 28  1  0  0  0  0
 12 29  1  0  0  0  0
 12 30  1  0  0  0  0
 14 16  1  0  0  0  0
 14 31  1  0  0  0  0
 14 32  1  0  0  0  0
 15 33  1  0  0  0  0
 15 34  1  0  0  0  0
 15 35  1  0  0  0  0
 17 18  1  0  0  0  0
 17 36  1  0  0  0  0
 17 37  1  0  0  0  0
 18 19  2  0  0  0  0
 18 21  1  0  0  0  0
 19 20  1  0  0  0  0
 19 39  1  0  0  0  0
 20 22  2  0  0  0  0
 21 23  2  0  0  0  0
 21 40  1  0  0  0  0
 22 23  1  0  0  0  0
 23 41  1  0  0  0  0
 24 42  1  0  0  0  0
 24 43  1  0  0  0  0
M  END
> <PUBCHEM_COMPOUND_CID>
17396485

> <PUBCHEM_COMPOUND_CANONICALIZED>
1

> <PUBCHEM_CACTVS_COMPLEXITY>
540

> <PUBCHEM_CACTVS_HBOND_ACCEPTOR>
5

> <PUBCHEM_CACTVS_HBOND_DONOR>
2

> <PUBCHEM_CACTVS_ROTATABLE_BOND>
5

> <PUBCHEM_CACTVS_SUBSKEYS>
AAADceB7OAAAAAAAAAAAAAAAAAAAAWJAAAAwAAAAAAAAAEgBAAAAHgAQAAAADIzBmAczDoPABACIAiFSEACCCAAgIAAIiIGOjIidZjKEsTu0MCps1zOOqAew0BIOIAABAAAAQABAAAIAAACAAAAAAAAAAA==

> <PUBCHEM_IUPAC_OPENEYE_NAME>
N-(1,3-benzodioxol-5-ylmethyl)-2-(4-ethyl-4-methyl-2,5-dioxo-imidazolidin-1-yl)acetamide

> <PUBCHEM_IUPAC_CAS_NAME>
N-(1,3-benzodioxol-5-ylmethyl)-2-(4-ethyl-4-methyl-2,5-dioxo-1-imidazolidinyl)acetamide

> <PUBCHEM_IUPAC_NAME>
N-(1,3-benzodioxol-5-ylmethyl)-2-(4-ethyl-4-methyl-2,5-dioxoimidazolidin-1-yl)acetamide

> <PUBCHEM_IUPAC_SYSTEMATIC_NAME>
N-(1,3-benzodioxol-5-ylmethyl)-2-[4-ethyl-4-methyl-2,5-bis(oxidanylidene)imidazolidin-1-yl]ethanamide

> <PUBCHEM_IUPAC_TRADITIONAL_NAME>
2-(4-ethyl-2,5-diketo-4-methyl-imidazolidin-1-yl)-N-piperonyl-acetamide

> <PUBCHEM_IUPAC_INCHI>
InChI=1S/C16H19N3O5/c1-3-16(2)14(21)19(15(22)18-16)8-13(20)17-7-10-4-5-11-12(6-10)24-9-23-11/h4-6H,3,7-9H2,1-2H3,(H,17,20)(H,18,22)

> <PUBCHEM_IUPAC_INCHIKEY>
DXBLYTOESZHBSD-UHFFFAOYSA-N

> <PUBCHEM_XLOGP3_AA>
0.9

> <PUBCHEM_EXACT_MASS>
333.132471

> <PUBCHEM_MOLECULAR_FORMULA>
C16H19N3O5

> <PUBCHEM_MOLECULAR_WEIGHT>
333.33916

> <PUBCHEM_OPENEYE_CAN_SMILES>
CCC1(C(=O)N(C(=O)N1)CC(=O)NCC2=CC3=C(C=C2)OCO3)C

> <PUBCHEM_OPENEYE_ISO_SMILES>
CCC1(C(=O)N(C(=O)N1)CC(=O)NCC2=CC3=C(C=C2)OCO3)C

> <PUBCHEM_CACTVS_TPSA>
97

> <PUBCHEM_MONOISOTOPIC_WEIGHT>
333.132471

> <PUBCHEM_TOTAL_CHARGE>
0

> <PUBCHEM_HEAVY_ATOM_COUNT>
24

> <PUBCHEM_ATOM_DEF_STEREO_COUNT>
0

> <PUBCHEM_ATOM_UDEF_STEREO_COUNT>
1

> <PUBCHEM_BOND_DEF_STEREO_COUNT>
0

> <PUBCHEM_BOND_UDEF_STEREO_COUNT>
0

> <PUBCHEM_ISOTOPIC_ATOM_COUNT>
0

> <PUBCHEM_COMPONENT_COUNT>
1

> <PUBCHEM_CACTVS_TAUTO_COUNT>
4

> <PUBCHEM_COORDINATE_TYPE>
1
5
255

> <PUBCHEM_BONDANNOTATIONS>
18  19  8
18  21  8
19  20  8
20  22  8
21  23  8
22  23  8
9  12  3

$$$$

