13607
  -OEChem-06241222393D

 22 22  0     0  0  0  0  0  0999 V2000
    1.9247   -0.5568   -0.2477 O   0  0  0  0  0  0  0  0  0  0  0  0
    0.6254   -0.2670    0.2567 C   0  0  0  0  0  0  0  0  0  0  0  0
    0.1736    1.1032   -0.2470 C   0  0  0  0  0  0  0  0  0  0  0  0
   -0.3456   -1.3693   -0.1636 C   0  0  0  0  0  0  0  0  0  0  0  0
   -1.2542    1.4179    0.1870 C   0  0  0  0  0  0  0  0  0  0  0  0
   -1.7735   -1.0548    0.2704 C   0  0  0  0  0  0  0  0  0  0  0  0
   -2.2243    0.3153   -0.2309 C   0  0  0  0  0  0  0  0  0  0  0  0
    2.8739    0.4115    0.1751 C   0  0  0  0  0  0  0  0  0  0  0  0
    0.6710   -0.2574    1.3544 H   0  0  0  0  0  0  0  0  0  0  0  0
    0.2507    1.1420   -1.3414 H   0  0  0  0  0  0  0  0  0  0  0  0
    0.8173    1.9044    0.1315 H   0  0  0  0  0  0  0  0  0  0  0  0
   -0.0248   -2.3280    0.2612 H   0  0  0  0  0  0  0  0  0  0  0  0
   -0.3062   -1.4994   -1.2530 H   0  0  0  0  0  0  0  0  0  0  0  0
   -1.5715    2.3719   -0.2490 H   0  0  0  0  0  0  0  0  0  0  0  0
   -1.2868    1.5378    1.2770 H   0  0  0  0  0  0  0  0  0  0  0  0
   -1.8362   -1.0811    1.3653 H   0  0  0  0  0  0  0  0  0  0  0  0
   -2.4527   -1.8274   -0.1071 H   0  0  0  0  0  0  0  0  0  0  0  0
   -3.2249    0.5385    0.1563 H   0  0  0  0  0  0  0  0  0  0  0  0
   -2.3020    0.2947   -1.3249 H   0  0  0  0  0  0  0  0  0  0  0  0
    3.8702   -0.0203    0.0398 H   0  0  0  0  0  0  0  0  0  0  0  0
    2.7593    0.6661    1.2337 H   0  0  0  0  0  0  0  0  0  0  0  0
    2.8255    1.3065   -0.4517 H   0  0  0  0  0  0  0  0  0  0  0  0
  1  2  1  0  0  0  0
  1  8  1  0  0  0  0
  2  3  1  0  0  0  0
  2  4  1  0  0  0  0
  2  9  1  0  0  0  0
  3  5  1  0  0  0  0
  3 10  1  0  0  0  0
  3 11  1  0  0  0  0
  4  6  1  0  0  0  0
  4 12  1  0  0  0  0
  4 13  1  0  0  0  0
  5  7  1  0  0  0  0
  5 14  1  0  0  0  0
  5 15  1  0  0  0  0
  6  7  1  0  0  0  0
  6 16  1  0  0  0  0
  6 17  1  0  0  0  0
  7 18  1  0  0  0  0
  7 19  1  0  0  0  0
  8 20  1  0  0  0  0
  8 21  1  0  0  0  0
  8 22  1  0  0  0  0
M  END
> <PUBCHEM_COMPOUND_CID>
13607

> <PUBCHEM_CONFORMER_RMSD>
0.4

> <PUBCHEM_CONFORMER_DIVERSEORDER>
1
8
7
2
4
5
9
3
6

> <PUBCHEM_MMFF94_PARTIAL_CHARGES>
3
1 -0.56
2 0.28
8 0.28

> <PUBCHEM_EFFECTIVE_ROTOR_COUNT>
2.2

> <PUBCHEM_PHARMACOPHORE_FEATURES>
2
1 1 acceptor
6 2 3 4 5 6 7 rings

> <PUBCHEM_HEAVY_ATOM_COUNT>
8

> <PUBCHEM_ATOM_DEF_STEREO_COUNT>
0

> <PUBCHEM_ATOM_UDEF_STEREO_COUNT>
0

> <PUBCHEM_BOND_DEF_STEREO_COUNT>
0

> <PUBCHEM_BOND_UDEF_STEREO_COUNT>
0

> <PUBCHEM_ISOTOPIC_ATOM_COUNT>
0

> <PUBCHEM_COMPONENT_COUNT>
1

> <PUBCHEM_CACTVS_TAUTO_COUNT>
1

> <PUBCHEM_CONFORMER_ID>
0000352700000001

> <PUBCHEM_MMFF94_ENERGY>
10.546

> <PUBCHEM_FEATURE_SELFOVERLAP>
10.148

> <PUBCHEM_SHAPE_FINGERPRINT>
10857977 72 18339088077146521424
14390081 3 18334017202686773064
16714656 1 18410573985177850911
18185500 45 18342739576695029663
21040471 1 18195526115149595597
23235685 24 18410861005284570189
23552423 10 18273209837462819494
29004967 10 18337384955088911650
369184 2 16773802493306021456
5084963 1 18261957461027910624

> <PUBCHEM_SHAPE_MULTIPOLES>
158.77
3.34
1.48
0.66
1.89
0.05
0.01
0.17
0.08
-0.51
0
-0.03
0
0.07

> <PUBCHEM_SHAPE_SELFOVERLAP>
301.562

> <PUBCHEM_SHAPE_VOLUME>
97.7

> <PUBCHEM_COORDINATE_TYPE>
2
5
10

$$$$

