6722
  -OEChem-06261201282D

 24 25  0     0  0  0  0  0  0999 V2000
    3.1200   -1.0174    0.0000 S   0  0  0  0  0  0  0  0  0  0  0  0
    2.6200   -1.8834    0.0000 O   0  0  0  0  0  0  0  0  0  0  0  0
    2.2539   -0.5173    0.0000 O   0  0  0  0  0  0  0  0  0  0  0  0
    3.9860   -1.5173    0.0000 O   0  0  0  0  0  0  0  0  0  0  0  0
    5.8700   -1.0576    0.0000 N   0  0  0  0  0  0  0  0  0  0  0  0
    4.4860    0.3487    0.0000 C   0  0  0  0  0  0  0  0  0  0  0  0
    3.6200   -0.1513    0.0000 C   0  0  0  0  0  0  0  0  0  0  0  0
    4.4860    1.3487    0.0000 C   0  0  0  0  0  0  0  0  0  0  0  0
    5.3799   -0.1859    0.0000 C   0  0  0  0  0  0  0  0  0  0  0  0
    2.7539    0.3487    0.0000 C   0  0  0  0  0  0  0  0  0  0  0  0
    3.6200    1.8487    0.0000 C   0  0  0  0  0  0  0  0  0  0  0  0
    5.3799    1.8834    0.0000 C   0  0  0  0  0  0  0  0  0  0  0  0
    2.7539    1.3487    0.0000 C   0  0  0  0  0  0  0  0  0  0  0  0
    6.2860    0.3279    0.0000 C   0  0  0  0  0  0  0  0  0  0  0  0
    6.2860    1.3695    0.0000 C   0  0  0  0  0  0  0  0  0  0  0  0
    2.2170    0.0387    0.0000 H   0  0  0  0  0  0  0  0  0  0  0  0
    3.6200    2.4687    0.0000 H   0  0  0  0  0  0  0  0  0  0  0  0
    5.3727    2.5033    0.0000 H   0  0  0  0  0  0  0  0  0  0  0  0
    2.2170    1.6587    0.0000 H   0  0  0  0  0  0  0  0  0  0  0  0
    6.8217    0.0158    0.0000 H   0  0  0  0  0  0  0  0  0  0  0  0
    6.8217    1.6816    0.0000 H   0  0  0  0  0  0  0  0  0  0  0  0
    6.4898   -1.0649    0.0000 H   0  0  0  0  0  0  0  0  0  0  0  0
    5.5537   -1.5910    0.0000 H   0  0  0  0  0  0  0  0  0  0  0  0
    2.0000   -1.8834    0.0000 H   0  0  0  0  0  0  0  0  0  0  0  0
  1  2  1  0  0  0  0
  1  3  2  0  0  0  0
  1  4  2  0  0  0  0
  1  7  1  0  0  0  0
  2 24  1  0  0  0  0
  5  9  1  0  0  0  0
  5 22  1  0  0  0  0
  5 23  1  0  0  0  0
  6  7  1  0  0  0  0
  6  8  2  0  0  0  0
  6  9  1  0  0  0  0
  7 10  2  0  0  0  0
  8 11  1  0  0  0  0
  8 12  1  0  0  0  0
  9 14  2  0  0  0  0
 10 13  1  0  0  0  0
 10 16  1  0  0  0  0
 11 13  2  0  0  0  0
 11 17  1  0  0  0  0
 12 15  2  0  0  0  0
 12 18  1  0  0  0  0
 13 19  1  0  0  0  0
 14 15  1  0  0  0  0
 14 20  1  0  0  0  0
 15 21  1  0  0  0  0
M  END
> <PUBCHEM_COMPOUND_CID>
6722

> <PUBCHEM_COMPOUND_CANONICALIZED>
1

> <PUBCHEM_CACTVS_COMPLEXITY>
322

> <PUBCHEM_CACTVS_HBOND_ACCEPTOR>
4

> <PUBCHEM_CACTVS_HBOND_DONOR>
2

> <PUBCHEM_CACTVS_ROTATABLE_BOND>
1

> <PUBCHEM_CACTVS_SUBSKEYS>
AAADccByMABAAAAAAAAAAAAAAAAAAAAAAAAwYAAAAAAAAADBUAAAHAQQCAAADAiBWAAwwcBAAIKAAiRCQHDCAEAgAgAIiBgAZIgIICKAkZGAIARgkAAIyAcQgIAOgAAAwAAWAAAAAAGAACwAAAAAAAAAAA==

> <PUBCHEM_IUPAC_OPENEYE_NAME>
8-aminonaphthalene-1-sulfonic acid

> <PUBCHEM_IUPAC_CAS_NAME>
8-amino-1-naphthalenesulfonic acid

> <PUBCHEM_IUPAC_NAME>
8-aminonaphthalene-1-sulfonic acid

> <PUBCHEM_IUPAC_SYSTEMATIC_NAME>
8-azanylnaphthalene-1-sulfonic acid

> <PUBCHEM_IUPAC_TRADITIONAL_NAME>
8-aminonaphthalene-1-sulfonic acid

> <PUBCHEM_IUPAC_INCHI>
InChI=1S/C10H9NO3S/c11-8-5-1-3-7-4-2-6-9(10(7)8)15(12,13)14/h1-6H,11H2,(H,12,13,14)

> <PUBCHEM_IUPAC_INCHIKEY>
CYJJLCDCWVZEDZ-UHFFFAOYSA-N

> <PUBCHEM_XLOGP3_AA>
1.2

> <PUBCHEM_EXACT_MASS>
223.030314

> <PUBCHEM_MOLECULAR_FORMULA>
C10H9NO3S

> <PUBCHEM_MOLECULAR_WEIGHT>
223.24836

> <PUBCHEM_OPENEYE_CAN_SMILES>
C1=CC2=C(C(=C1)N)C(=CC=C2)S(=O)(=O)O

> <PUBCHEM_OPENEYE_ISO_SMILES>
C1=CC2=C(C(=C1)N)C(=CC=C2)S(=O)(=O)O

> <PUBCHEM_CACTVS_TPSA>
88.8

> <PUBCHEM_MONOISOTOPIC_WEIGHT>
223.030314

> <PUBCHEM_TOTAL_CHARGE>
0

> <PUBCHEM_HEAVY_ATOM_COUNT>
15

> <PUBCHEM_ATOM_DEF_STEREO_COUNT>
0

> <PUBCHEM_ATOM_UDEF_STEREO_COUNT>
0

> <PUBCHEM_BOND_DEF_STEREO_COUNT>
0

> <PUBCHEM_BOND_UDEF_STEREO_COUNT>
0

> <PUBCHEM_ISOTOPIC_ATOM_COUNT>
0

> <PUBCHEM_COMPONENT_COUNT>
1

> <PUBCHEM_CACTVS_TAUTO_COUNT>
1

> <PUBCHEM_COORDINATE_TYPE>
1
5
255

> <PUBCHEM_BONDANNOTATIONS>
10  13  8
11  13  8
12  15  8
14  15  8
6  7  8
6  8  8
6  9  8
7  10  8
8  11  8
8  12  8
9  14  8

$$$$

