51090951
  -OEChem-06241223013D

 51 53  0     1  0  0  0  0  0999 V2000
    4.4206    2.7412   -0.1453 S   0  0  0  0  0  0  0  0  0  0  0  0
    1.5524   -1.8446    1.5464 O   0  0  0  0  0  0  0  0  0  0  0  0
    2.0757    1.0970   -0.8525 O   0  0  0  0  0  0  0  0  0  0  0  0
   -3.9232    0.5280    0.0582 N   0  0  0  0  0  0  0  0  0  0  0  0
   -0.3941   -1.7899    0.2791 N   0  0  0  0  0  0  0  0  0  0  0  0
    2.9804   -0.9997   -0.4400 N   0  0  0  0  0  0  0  0  0  0  0  0
   -3.0459   -0.6416    0.1030 C   0  0  0  0  0  0  0  0  0  0  0  0
   -2.0815   -0.6225   -1.0900 C   0  0  0  0  0  0  0  0  0  0  0  0
   -2.2651   -0.6639    1.4233 C   0  0  0  0  0  0  0  0  0  0  0  0
   -4.8824    0.4939    1.1711 C   0  0  0  0  0  0  0  0  0  0  0  0
   -4.6143    0.6028   -1.2367 C   0  0  0  0  0  0  0  0  0  0  0  0
   -1.2726   -1.8249    1.4503 C   0  0  0  0  0  0  0  0  0  0  0  0
   -1.0913   -1.7845   -1.0130 C   0  0  0  0  0  0  0  0  0  0  0  0
   -5.7758    1.7355    1.1678 C   0  0  0  0  0  0  0  0  0  0  0  0
   -5.4989    1.8476   -1.3187 C   0  0  0  0  0  0  0  0  0  0  0  0
   -6.4956    1.8969   -0.1662 C   0  0  0  0  0  0  0  0  0  0  0  0
    0.9899   -1.8037    0.4492 C   0  0  0  0  0  0  0  0  0  0  0  0
    1.8252   -1.7630   -0.8056 C   0  0  2  0  0  0  0  0  0  0  0  0
    2.1795   -3.1602   -1.2582 C   0  0  0  0  0  0  0  0  0  0  0  0
    3.0151    0.3919   -0.4932 C   0  0  0  0  0  0  0  0  0  0  0  0
    4.2976    1.0336   -0.1060 C   0  0  0  0  0  0  0  0  0  0  0  0
    5.4716    0.4401    0.3029 C   0  0  0  0  0  0  0  0  0  0  0  0
    6.4853    1.3999    0.5881 C   0  0  0  0  0  0  0  0  0  0  0  0
    6.0476    2.6903    0.3861 C   0  0  0  0  0  0  0  0  0  0  0  0
   -3.6456   -1.5617    0.0409 H   0  0  0  0  0  0  0  0  0  0  0  0
   -2.5989   -0.7452   -2.0464 H   0  0  0  0  0  0  0  0  0  0  0  0
   -1.5263    0.3241   -1.1206 H   0  0  0  0  0  0  0  0  0  0  0  0
   -1.7211    0.2803    1.5580 H   0  0  0  0  0  0  0  0  0  0  0  0
   -2.9141   -0.8031    2.2927 H   0  0  0  0  0  0  0  0  0  0  0  0
   -4.3851    0.5126    2.1441 H   0  0  0  0  0  0  0  0  0  0  0  0
   -5.5043   -0.4099    1.1299 H   0  0  0  0  0  0  0  0  0  0  0  0
   -5.2178   -0.2961   -1.4182 H   0  0  0  0  0  0  0  0  0  0  0  0
   -3.9172    0.7173   -2.0708 H   0  0  0  0  0  0  0  0  0  0  0  0
   -0.6890   -1.7897    2.3757 H   0  0  0  0  0  0  0  0  0  0  0  0
   -1.8021   -2.7850    1.4336 H   0  0  0  0  0  0  0  0  0  0  0  0
   -1.6350   -2.7361   -1.0744 H   0  0  0  0  0  0  0  0  0  0  0  0
   -0.4321   -1.7648   -1.8779 H   0  0  0  0  0  0  0  0  0  0  0  0
   -6.5115    1.6656    1.9772 H   0  0  0  0  0  0  0  0  0  0  0  0
   -6.0384    1.8576   -2.2728 H   0  0  0  0  0  0  0  0  0  0  0  0
   -4.8716    2.7480   -1.2966 H   0  0  0  0  0  0  0  0  0  0  0  0
   -5.1675    2.6277    1.3645 H   0  0  0  0  0  0  0  0  0  0  0  0
   -7.2319    1.0925   -0.2845 H   0  0  0  0  0  0  0  0  0  0  0  0
   -7.0463    2.8437   -0.1848 H   0  0  0  0  0  0  0  0  0  0  0  0
    1.3517   -1.2049   -1.6122 H   0  0  0  0  0  0  0  0  0  0  0  0
    2.8482   -3.1317   -2.1252 H   0  0  0  0  0  0  0  0  0  0  0  0
    1.2837   -3.7252   -1.5363 H   0  0  0  0  0  0  0  0  0  0  0  0
    2.6902   -3.7225   -0.4678 H   0  0  0  0  0  0  0  0  0  0  0  0
    3.7841   -1.5103   -0.0896 H   0  0  0  0  0  0  0  0  0  0  0  0
    5.6230   -0.6268    0.4007 H   0  0  0  0  0  0  0  0  0  0  0  0
    7.4848    1.1564    0.9241 H   0  0  0  0  0  0  0  0  0  0  0  0
    6.6055    3.6055    0.5250 H   0  0  0  0  0  0  0  0  0  0  0  0
  1 21  1  0  0  0  0
  1 24  1  0  0  0  0
  2 17  2  0  0  0  0
  3 20  2  0  0  0  0
  4  7  1  0  0  0  0
  4 10  1  0  0  0  0
  4 11  1  0  0  0  0
  5 12  1  0  0  0  0
  5 13  1  0  0  0  0
  5 17  1  0  0  0  0
  6 18  1  0  0  0  0
  6 20  1  0  0  0  0
  6 48  1  0  0  0  0
  7  8  1  0  0  0  0
  7  9  1  0  0  0  0
  7 25  1  0  0  0  0
  8 13  1  0  0  0  0
  8 26  1  0  0  0  0
  8 27  1  0  0  0  0
  9 12  1  0  0  0  0
  9 28  1  0  0  0  0
  9 29  1  0  0  0  0
 10 14  1  0  0  0  0
 10 30  1  0  0  0  0
 10 31  1  0  0  0  0
 11 15  1  0  0  0  0
 11 32  1  0  0  0  0
 11 33  1  0  0  0  0
 12 34  1  0  0  0  0
 12 35  1  0  0  0  0
 13 36  1  0  0  0  0
 13 37  1  0  0  0  0
 14 16  1  0  0  0  0
 14 38  1  0  0  0  0
 14 41  1  0  0  0  0
 15 16  1  0  0  0  0
 15 39  1  0  0  0  0
 15 40  1  0  0  0  0
 16 42  1  0  0  0  0
 16 43  1  0  0  0  0
 17 18  1  0  0  0  0
 18 19  1  0  0  0  0
 18 44  1  0  0  0  0
 19 45  1  0  0  0  0
 19 46  1  0  0  0  0
 19 47  1  0  0  0  0
 20 21  1  0  0  0  0
 21 22  2  0  0  0  0
 22 23  1  0  0  0  0
 22 49  1  0  0  0  0
 23 24  2  0  0  0  0
 23 50  1  0  0  0  0
 24 51  1  0  0  0  0
M  END
> <PUBCHEM_COMPOUND_CID>
51090951

> <PUBCHEM_CONFORMER_RMSD>
0.8

> <PUBCHEM_CONFORMER_DIVERSEORDER>
3
13
102
255
46
357
75
316
62
355
84
338
197
28
104
59
132
45
93
47
68
302
282
341
296
126
277
117
177
97
210
205
216
146
311
287
139
198
331
342
61
247
43
218
39
135
60
252
352
31
231
66
223
87
354
328
227
265
270
317
290
353
52
305
321
228
229
109
187
315
192
362
55
264
44
82
359
220
23
249
70
263
118
180
189
159
79
280
57
323
347
238
116
134
35
242
90
168
288
37
149
193
297
164
7
326
241
67
202
92
76
120
266
306
251
268
304
309
333
98
166
312
27
183
319
38
152
29
307
295
201
144
310
178
33
325
363
350
151
85
108
89
206
145
78
141
64
196
42
339
95
56
285
299
155
194
222
276
167
199
327
226
106
232
261
32
58
204
209
195
105
289
100
115
301
260
94
360
184
83
71
73
74
179
224
111
162
86
219
65
293
225
236
36
125
122
237
190
133
129
292
271
212
256
314
284
246
248
274
99
176
160
257
131
17
343
25
51
169
273
34
142
188
275
6
233
303
148
137
140
244
349
258
41
171
96
88
124
320
181
291
207
250
72
11
191
200
203
150
8
101
221
217
110
26
4
318
243
313
235
286
48
15
230
40
156
147
185
345
308
50
138
213
154
161
186
170
9
16
346
19
54
173
335
211
279
214
324
143
351
269
298
182
153
158
172
240
330
361
281
14
300
77
121
21
1
49
20
294
348
283
174
278
91
329
113
165
253
10
103
215
112
81
114
175
254
22
163
208
157
18
123
259
136
344
356
130
63
127
80
69
234
12
53
5
107
340
24
337
245
358
332
119
322
334
30
239
336
262
128
2
272
267

> <PUBCHEM_MMFF94_PARTIAL_CHARGES>
22
1 -0.08
10 0.27
11 0.27
12 0.3
13 0.3
17 0.57
18 0.36
2 -0.57
20 0.71
21 -0.05
22 -0.15
23 -0.15
24 -0.11
3 -0.57
4 -0.81
48 0.37
49 0.15
5 -0.66
50 0.15
51 0.15
6 -0.73
7 0.27

> <PUBCHEM_EFFECTIVE_ROTOR_COUNT>
8.4

> <PUBCHEM_PHARMACOPHORE_FEATURES>
7
1 2 acceptor
1 3 acceptor
1 4 cation
1 6 donor
5 1 21 22 23 24 rings
6 4 10 11 14 15 16 rings
6 5 7 8 9 12 13 rings

> <PUBCHEM_HEAVY_ATOM_COUNT>
24

> <PUBCHEM_ATOM_DEF_STEREO_COUNT>
0

> <PUBCHEM_ATOM_UDEF_STEREO_COUNT>
1

> <PUBCHEM_BOND_DEF_STEREO_COUNT>
0

> <PUBCHEM_BOND_UDEF_STEREO_COUNT>
0

> <PUBCHEM_ISOTOPIC_ATOM_COUNT>
0

> <PUBCHEM_COMPONENT_COUNT>
1

> <PUBCHEM_CACTVS_TAUTO_COUNT>
2

> <PUBCHEM_CONFORMER_ID>
030B960700000003

> <PUBCHEM_MMFF94_ENERGY>
38.2666

> <PUBCHEM_FEATURE_SELFOVERLAP>
35.52

> <PUBCHEM_SHAPE_MULTIPOLES>
471.08
16.51
3.26
1.39
0.99
0.38
0.15
-18.23
0.86
-2.46
-0.35
1.3
0.37
0.89

> <PUBCHEM_SHAPE_SELFOVERLAP>
963.01

> <PUBCHEM_SHAPE_VOLUME>
272.5

> <PUBCHEM_COORDINATE_TYPE>
2
5
10

$$$$

