586334
  -OEChem-06241222462D

 44 45  0     1  0  0  0  0  0999 V2000
    2.8660   -1.7032    0.0000 O   0  0  0  0  0  0  0  0  0  0  0  0
    4.5981   -1.7032    0.0000 O   0  0  0  0  0  0  0  0  0  0  0  0
    4.5981    0.2968    0.0000 C   0  0  3  0  0  0  0  0  0  0  0  0
    4.5981    1.2968    0.0000 C   0  0  3  0  0  0  0  0  0  0  0  0
    5.4920    1.8315    0.0000 C   0  0  0  0  0  0  0  0  0  0  0  0
    5.4920   -0.2379    0.0000 C   0  0  0  0  0  0  0  0  0  0  0  0
    3.7320   -0.2032    0.0000 C   0  0  3  0  0  0  0  0  0  0  0  0
    3.7320    1.7968    0.0000 C   0  0  0  0  0  0  0  0  0  0  0  0
    6.3981    1.3176    0.0000 C   0  0  0  0  0  0  0  0  0  0  0  0
    6.3981    0.2760    0.0000 C   0  0  0  0  0  0  0  0  0  0  0  0
    4.5981   -0.7032    0.0000 C   0  0  0  0  0  0  0  0  0  0  0  0
    2.8660    1.2968    0.0000 C   0  0  0  0  0  0  0  0  0  0  0  0
    2.8660    0.2968    0.0000 C   0  0  0  0  0  0  0  0  0  0  0  0
    5.9820    2.7032    0.0000 C   0  0  0  0  0  0  0  0  0  0  0  0
    4.9820    2.6916    0.0000 C   0  0  0  0  0  0  0  0  0  0  0  0
    3.7320   -1.2032    0.0000 C   0  0  0  0  0  0  0  0  0  0  0  0
    2.0000   -0.2032    0.0000 C   0  0  0  0  0  0  0  0  0  0  0  0
    2.8660   -2.7032    0.0000 C   0  0  0  0  0  0  0  0  0  0  0  0
    4.5915    2.1468    0.0000 H   0  0  0  0  0  0  0  0  0  0  0  0
    5.0874   -0.7077    0.0000 H   0  0  0  0  0  0  0  0  0  0  0  0
    5.8856   -0.7169    0.0000 H   0  0  0  0  0  0  0  0  0  0  0  0
    4.4682   -0.6282    0.0000 H   0  0  0  0  0  0  0  0  0  0  0  0
    4.1306    2.2717    0.0000 H   0  0  0  0  0  0  0  0  0  0  0  0
    3.3335    2.2717    0.0000 H   0  0  0  0  0  0  0  0  0  0  0  0
    7.0089    1.2115    0.0000 H   0  0  0  0  0  0  0  0  0  0  0  0
    6.6071    1.9013    0.0000 H   0  0  0  0  0  0  0  0  0  0  0  0
    6.6071   -0.3077    0.0000 H   0  0  0  0  0  0  0  0  0  0  0  0
    7.0089    0.3821    0.0000 H   0  0  0  0  0  0  0  0  0  0  0  0
    3.9781   -0.7032    0.0000 H   0  0  0  0  0  0  0  0  0  0  0  0
    4.5981   -1.3232    0.0000 H   0  0  0  0  0  0  0  0  0  0  0  0
    5.2181   -0.7032    0.0000 H   0  0  0  0  0  0  0  0  0  0  0  0
    2.6540    1.8794    0.0000 H   0  0  0  0  0  0  0  0  0  0  0  0
    2.2554    1.1891    0.0000 H   0  0  0  0  0  0  0  0  0  0  0  0
    6.5225    2.3994    0.0000 H   0  0  0  0  0  0  0  0  0  0  0  0
    6.2857    3.2437    0.0000 H   0  0  0  0  0  0  0  0  0  0  0  0
    5.4415    3.0070    0.0000 H   0  0  0  0  0  0  0  0  0  0  0  0
    5.5154    3.0078    0.0000 H   0  0  0  0  0  0  0  0  0  0  0  0
    4.6658    3.2250    0.0000 H   0  0  0  0  0  0  0  0  0  0  0  0
    4.4487    2.3754    0.0000 H   0  0  0  0  0  0  0  0  0  0  0  0
    1.4631    0.1068    0.0000 H   0  0  0  0  0  0  0  0  0  0  0  0
    2.0000   -0.8232    0.0000 H   0  0  0  0  0  0  0  0  0  0  0  0
    2.2460   -2.7032    0.0000 H   0  0  0  0  0  0  0  0  0  0  0  0
    2.8660   -3.3232    0.0000 H   0  0  0  0  0  0  0  0  0  0  0  0
    3.4860   -2.7032    0.0000 H   0  0  0  0  0  0  0  0  0  0  0  0
  1 16  1  0  0  0  0
  1 18  1  0  0  0  0
  2 16  2  0  0  0  0
  3  4  1  0  0  0  0
  3  6  1  0  0  0  0
  3  7  1  0  0  0  0
  3 11  1  0  0  0  0
  4  5  1  0  0  0  0
  4  8  1  0  0  0  0
  4 19  1  0  0  0  0
  5  9  1  0  0  0  0
  5 14  1  0  0  0  0
  5 15  1  0  0  0  0
  6 10  1  0  0  0  0
  6 20  1  0  0  0  0
  6 21  1  0  0  0  0
  7 13  1  0  0  0  0
  7 16  1  0  0  0  0
  7 22  1  0  0  0  0
  8 12  1  0  0  0  0
  8 23  1  0  0  0  0
  8 24  1  0  0  0  0
  9 10  1  0  0  0  0
  9 25  1  0  0  0  0
  9 26  1  0  0  0  0
 10 27  1  0  0  0  0
 10 28  1  0  0  0  0
 11 29  1  0  0  0  0
 11 30  1  0  0  0  0
 11 31  1  0  0  0  0
 12 13  1  0  0  0  0
 12 32  1  0  0  0  0
 12 33  1  0  0  0  0
 13 17  2  0  0  0  0
 14 34  1  0  0  0  0
 14 35  1  0  0  0  0
 14 36  1  0  0  0  0
 15 37  1  0  0  0  0
 15 38  1  0  0  0  0
 15 39  1  0  0  0  0
 17 40  1  0  0  0  0
 17 41  1  0  0  0  0
 18 42  1  0  0  0  0
 18 43  1  0  0  0  0
 18 44  1  0  0  0  0
M  END
> <PUBCHEM_COMPOUND_CID>
586334

> <PUBCHEM_COMPOUND_CANONICALIZED>
1

> <PUBCHEM_CACTVS_COMPLEXITY>
369

> <PUBCHEM_CACTVS_HBOND_ACCEPTOR>
2

> <PUBCHEM_CACTVS_HBOND_DONOR>
0

> <PUBCHEM_CACTVS_ROTATABLE_BOND>
2

> <PUBCHEM_CACTVS_SUBSKEYS>
AAADceB4MAAAAAAAAAAAAAAAAAAAAAAAAAAwYAAAAAAAAADAAAAAGgAAAAAADwCAgAICCAAABACIAgDSCAAAAAAgAAAAAAEAAAgAABIAAQAAAAAEwAAAAAGIyPCPgAAAAAAAAAAAAAQAACAAAAAAAAAAAA==

> <PUBCHEM_IUPAC_OPENEYE_NAME>
methyl 5,5,8a-trimethyl-2-methylene-decalin-1-carboxylate

> <PUBCHEM_IUPAC_CAS_NAME>
5,5,8a-trimethyl-2-methylene-3,4,4a,6,7,8-hexahydro-1H-naphthalene-1-carboxylic acid methyl ester

> <PUBCHEM_IUPAC_NAME>
methyl 5,5,8a-trimethyl-2-methylidene-3,4,4a,6,7,8-hexahydro-1H-naphthalene-1-carboxylate

> <PUBCHEM_IUPAC_SYSTEMATIC_NAME>
methyl 5,5,8a-trimethyl-2-methylidene-3,4,4a,6,7,8-hexahydro-1H-naphthalene-1-carboxylate

> <PUBCHEM_IUPAC_TRADITIONAL_NAME>
5,5,8a-trimethyl-2-methylene-decalin-1-carboxylic acid methyl ester

> <PUBCHEM_IUPAC_INCHI>
InChI=1S/C16H26O2/c1-11-7-8-12-15(2,3)9-6-10-16(12,4)13(11)14(17)18-5/h12-13H,1,6-10H2,2-5H3

> <PUBCHEM_IUPAC_INCHIKEY>
OGTZZPDGRYENGN-UHFFFAOYSA-N

> <PUBCHEM_XLOGP3_AA>
4.6

> <PUBCHEM_EXACT_MASS>
250.19328

> <PUBCHEM_MOLECULAR_FORMULA>
C16H26O2

> <PUBCHEM_MOLECULAR_WEIGHT>
250.37644

> <PUBCHEM_OPENEYE_CAN_SMILES>
CC1(CCCC2(C1CCC(=C)C2C(=O)OC)C)C

> <PUBCHEM_OPENEYE_ISO_SMILES>
CC1(CCCC2(C1CCC(=C)C2C(=O)OC)C)C

> <PUBCHEM_CACTVS_TPSA>
26.3

> <PUBCHEM_MONOISOTOPIC_WEIGHT>
250.19328

> <PUBCHEM_TOTAL_CHARGE>
0

> <PUBCHEM_HEAVY_ATOM_COUNT>
18

> <PUBCHEM_ATOM_DEF_STEREO_COUNT>
0

> <PUBCHEM_ATOM_UDEF_STEREO_COUNT>
3

> <PUBCHEM_BOND_DEF_STEREO_COUNT>
0

> <PUBCHEM_BOND_UDEF_STEREO_COUNT>
0

> <PUBCHEM_ISOTOPIC_ATOM_COUNT>
0

> <PUBCHEM_COMPONENT_COUNT>
1

> <PUBCHEM_CACTVS_TAUTO_COUNT>
1

> <PUBCHEM_COORDINATE_TYPE>
1
5
255

> <PUBCHEM_BONDANNOTATIONS>
3  11  3
4  19  3
7  22  3

$$$$

