854242
  -OEChem-06241222472D

 41 43  0     0  0  0  0  0  0999 V2000
    7.1279   -0.2498    0.0000 S   0  0  0  0  0  0  0  0  0  0  0  0
    3.7320    1.7502    0.0000 O   0  0  0  0  0  0  0  0  0  0  0  0
    2.0000   -1.2498    0.0000 O   0  0  0  0  0  0  0  0  0  0  0  0
    5.5443    0.5550    0.0000 N   0  0  0  0  0  0  0  0  0  0  0  0
    3.7320   -1.2498    0.0000 N   0  0  0  0  0  0  0  0  0  0  0  0
    5.5443   -1.0545    0.0000 N   0  0  0  0  0  0  0  0  0  0  0  0
    2.8660    0.2502    0.0000 N   0  0  0  0  0  0  0  0  0  0  0  0
    5.8550    1.5055    0.0000 C   0  0  0  0  0  0  0  0  0  0  0  0
    4.5981    0.2502    0.0000 C   0  0  0  0  0  0  0  0  0  0  0  0
    4.5981   -0.7498    0.0000 C   0  0  0  0  0  0  0  0  0  0  0  0
    6.1279   -0.2498    0.0000 C   0  0  0  0  0  0  0  0  0  0  0  0
    6.8335    1.7117    0.0000 C   0  0  0  0  0  0  0  0  0  0  0  0
    5.1871    2.2498    0.0000 C   0  0  0  0  0  0  0  0  0  0  0  0
    3.7320    0.7502    0.0000 C   0  0  0  0  0  0  0  0  0  0  0  0
    2.8660   -0.7498    0.0000 C   0  0  0  0  0  0  0  0  0  0  0  0
    3.7320   -2.2498    0.0000 C   0  0  0  0  0  0  0  0  0  0  0  0
    7.6279   -1.1158    0.0000 C   0  0  0  0  0  0  0  0  0  0  0  0
    8.6279   -1.1158    0.0000 C   0  0  0  0  0  0  0  0  0  0  0  0
    9.1279   -1.9818    0.0000 C   0  0  0  0  0  0  0  0  0  0  0  0
    9.1279   -0.2498    0.0000 C   0  0  0  0  0  0  0  0  0  0  0  0
   10.1279   -1.9818    0.0000 C   0  0  0  0  0  0  0  0  0  0  0  0
   10.1279   -0.2498    0.0000 C   0  0  0  0  0  0  0  0  0  0  0  0
   10.6279   -1.1158    0.0000 C   0  0  0  0  0  0  0  0  0  0  0  0
    6.2690    1.0440    0.0000 H   0  0  0  0  0  0  0  0  0  0  0  0
    6.9613    1.1050    0.0000 H   0  0  0  0  0  0  0  0  0  0  0  0
    7.4401    1.8396    0.0000 H   0  0  0  0  0  0  0  0  0  0  0  0
    6.7056    2.3184    0.0000 H   0  0  0  0  0  0  0  0  0  0  0  0
    5.6486    2.6638    0.0000 H   0  0  0  0  0  0  0  0  0  0  0  0
    4.7730    2.7112    0.0000 H   0  0  0  0  0  0  0  0  0  0  0  0
    4.7256    1.8357    0.0000 H   0  0  0  0  0  0  0  0  0  0  0  0
    2.3291    0.5602    0.0000 H   0  0  0  0  0  0  0  0  0  0  0  0
    3.1120   -2.2498    0.0000 H   0  0  0  0  0  0  0  0  0  0  0  0
    3.7320   -2.8698    0.0000 H   0  0  0  0  0  0  0  0  0  0  0  0
    4.3520   -2.2498    0.0000 H   0  0  0  0  0  0  0  0  0  0  0  0
    7.0453   -1.3278    0.0000 H   0  0  0  0  0  0  0  0  0  0  0  0
    7.7356   -1.7264    0.0000 H   0  0  0  0  0  0  0  0  0  0  0  0
    8.8179   -2.5188    0.0000 H   0  0  0  0  0  0  0  0  0  0  0  0
    8.8179    0.2872    0.0000 H   0  0  0  0  0  0  0  0  0  0  0  0
   10.4379   -2.5188    0.0000 H   0  0  0  0  0  0  0  0  0  0  0  0
   10.4379    0.2872    0.0000 H   0  0  0  0  0  0  0  0  0  0  0  0
   11.2479   -1.1158    0.0000 H   0  0  0  0  0  0  0  0  0  0  0  0
  1 11  1  0  0  0  0
  1 17  1  0  0  0  0
  2 14  2  0  0  0  0
  3 15  2  0  0  0  0
  4  8  1  0  0  0  0
  4  9  1  0  0  0  0
  4 11  1  0  0  0  0
  5 10  1  0  0  0  0
  5 15  1  0  0  0  0
  5 16  1  0  0  0  0
  6 10  1  0  0  0  0
  6 11  2  0  0  0  0
  7 14  1  0  0  0  0
  7 15  1  0  0  0  0
  7 31  1  0  0  0  0
  8 12  1  0  0  0  0
  8 13  1  0  0  0  0
  8 24  1  0  0  0  0
  9 10  2  0  0  0  0
  9 14  1  0  0  0  0
 12 25  1  0  0  0  0
 12 26  1  0  0  0  0
 12 27  1  0  0  0  0
 13 28  1  0  0  0  0
 13 29  1  0  0  0  0
 13 30  1  0  0  0  0
 16 32  1  0  0  0  0
 16 33  1  0  0  0  0
 16 34  1  0  0  0  0
 17 18  1  0  0  0  0
 17 35  1  0  0  0  0
 17 36  1  0  0  0  0
 18 19  2  0  0  0  0
 18 20  1  0  0  0  0
 19 21  1  0  0  0  0
 19 37  1  0  0  0  0
 20 22  2  0  0  0  0
 20 38  1  0  0  0  0
 21 23  2  0  0  0  0
 21 39  1  0  0  0  0
 22 23  1  0  0  0  0
 22 40  1  0  0  0  0
 23 41  1  0  0  0  0
M  END
> <PUBCHEM_COMPOUND_CID>
854242

> <PUBCHEM_COMPOUND_CANONICALIZED>
1

> <PUBCHEM_CACTVS_COMPLEXITY>
467

> <PUBCHEM_CACTVS_HBOND_ACCEPTOR>
4

> <PUBCHEM_CACTVS_HBOND_DONOR>
1

> <PUBCHEM_CACTVS_ROTATABLE_BOND>
4

> <PUBCHEM_CACTVS_SUBSKEYS>
AAADceB7sABAAAAAAAAAAAAAAAAAAWAAAAA8QAAAAAAAAFgBwAAAHgQQAAAADCjF3gSzsJfMEAioAydydACC0C1nELAJ2AGoVMiIaCrgWTCUIIgohyLIiGcAgAAOAAAAAAAAAAAAAAAAAAAAAAAAAAAAAA==

> <PUBCHEM_IUPAC_OPENEYE_NAME>
8-benzylsulfanyl-7-isopropyl-3-methyl-purine-2,6-dione

> <PUBCHEM_IUPAC_CAS_NAME>
3-methyl-8-(phenylmethylthio)-7-propan-2-ylpurine-2,6-dione

> <PUBCHEM_IUPAC_NAME>
8-benzylsulfanyl-3-methyl-7-propan-2-ylpurine-2,6-dione

> <PUBCHEM_IUPAC_SYSTEMATIC_NAME>
3-methyl-8-(phenylmethylsulfanyl)-7-propan-2-yl-purine-2,6-dione

> <PUBCHEM_IUPAC_TRADITIONAL_NAME>
8-(benzylthio)-7-isopropyl-3-methyl-xanthine

> <PUBCHEM_IUPAC_INCHI>
InChI=1S/C16H18N4O2S/c1-10(2)20-12-13(19(3)15(22)18-14(12)21)17-16(20)23-9-11-7-5-4-6-8-11/h4-8,10H,9H2,1-3H3,(H,18,21,22)

> <PUBCHEM_IUPAC_INCHIKEY>
KSLOMNIYZYEGIE-UHFFFAOYSA-N

> <PUBCHEM_XLOGP3_AA>
2.4

> <PUBCHEM_EXACT_MASS>
330.115047

> <PUBCHEM_MOLECULAR_FORMULA>
C16H18N4O2S

> <PUBCHEM_MOLECULAR_WEIGHT>
330.40472

> <PUBCHEM_OPENEYE_CAN_SMILES>
CC(C)N1C2=C(N=C1SCC3=CC=CC=C3)N(C(=O)NC2=O)C

> <PUBCHEM_OPENEYE_ISO_SMILES>
CC(C)N1C2=C(N=C1SCC3=CC=CC=C3)N(C(=O)NC2=O)C

> <PUBCHEM_CACTVS_TPSA>
92.5

> <PUBCHEM_MONOISOTOPIC_WEIGHT>
330.115047

> <PUBCHEM_TOTAL_CHARGE>
0

> <PUBCHEM_HEAVY_ATOM_COUNT>
23

> <PUBCHEM_ATOM_DEF_STEREO_COUNT>
0

> <PUBCHEM_ATOM_UDEF_STEREO_COUNT>
0

> <PUBCHEM_BOND_DEF_STEREO_COUNT>
0

> <PUBCHEM_BOND_UDEF_STEREO_COUNT>
0

> <PUBCHEM_ISOTOPIC_ATOM_COUNT>
0

> <PUBCHEM_COMPONENT_COUNT>
1

> <PUBCHEM_CACTVS_TAUTO_COUNT>
3

> <PUBCHEM_COORDINATE_TYPE>
1
5
255

> <PUBCHEM_BONDANNOTATIONS>
18  19  8
18  20  8
19  21  8
20  22  8
21  23  8
22  23  8
4  11  8
4  9  8
5  10  8
5  15  8
6  10  8
6  11  8
7  14  8
7  15  8
9  10  8
9  14  8

$$$$

