3534
  -OEChem-06251223292D

 44 47  0     0  0  0  0  0  0999 V2000
    6.0174   -0.0524    0.0000 S   0  0  0  0  0  0  0  0  0  0  0  0
   11.1785   -3.1123    0.0000 O   0  0  0  0  0  0  0  0  0  0  0  0
    9.4581   -2.0923    0.0000 N   0  0  0  0  0  0  0  0  0  0  0  0
    4.2690    2.9822    0.0000 N   0  0  0  0  0  0  0  0  0  0  0  0
    3.4030    1.4822    0.0000 N   0  0  0  0  0  0  0  0  0  0  0  0
    4.2690   -0.0178    0.0000 N   0  0  0  0  0  0  0  0  0  0  0  0
    2.5369    2.9822    0.0000 N   0  0  0  0  0  0  0  0  0  0  0  0
    9.4466   -3.0922    0.0000 C   0  0  0  0  0  0  0  0  0  0  0  0
   10.3299   -1.6024    0.0000 C   0  0  0  0  0  0  0  0  0  0  0  0
   10.3068   -3.6022    0.0000 C   0  0  0  0  0  0  0  0  0  0  0  0
   11.1901   -2.1123    0.0000 C   0  0  0  0  0  0  0  0  0  0  0  0
    8.5980   -1.5823    0.0000 C   0  0  0  0  0  0  0  0  0  0  0  0
    8.6095   -0.5824    0.0000 C   0  0  0  0  0  0  0  0  0  0  0  0
    7.7262   -2.0723    0.0000 C   0  0  0  0  0  0  0  0  0  0  0  0
    6.8776   -0.5624    0.0000 C   0  0  0  0  0  0  0  0  0  0  0  0
    7.7493   -0.0724    0.0000 C   0  0  0  0  0  0  0  0  0  0  0  0
    6.8660   -1.5623    0.0000 C   0  0  0  0  0  0  0  0  0  0  0  0
    6.0290    0.9476    0.0000 C   0  0  0  0  0  0  0  0  0  0  0  0
    5.1350    1.4822    0.0000 C   0  0  0  0  0  0  0  0  0  0  0  0
    5.1350    2.4822    0.0000 C   0  0  0  0  0  0  0  0  0  0  0  0
    6.9350    1.4614    0.0000 C   0  0  0  0  0  0  0  0  0  0  0  0
    4.2690    0.9822    0.0000 C   0  0  0  0  0  0  0  0  0  0  0  0
    6.0290    3.0169    0.0000 C   0  0  0  0  0  0  0  0  0  0  0  0
    6.9350    2.5030    0.0000 C   0  0  0  0  0  0  0  0  0  0  0  0
    3.4030    2.4822    0.0000 C   0  0  0  0  0  0  0  0  0  0  0  0
    8.8373   -2.9775    0.0000 H   0  0  0  0  0  0  0  0  0  0  0  0
    9.2278   -3.6724    0.0000 H   0  0  0  0  0  0  0  0  0  0  0  0
   10.7339   -1.1320    0.0000 H   0  0  0  0  0  0  0  0  0  0  0  0
    9.9369   -1.1228    0.0000 H   0  0  0  0  0  0  0  0  0  0  0  0
   11.7994   -2.2271    0.0000 H   0  0  0  0  0  0  0  0  0  0  0  0
    9.9028   -4.0725    0.0000 H   0  0  0  0  0  0  0  0  0  0  0  0
   10.6998   -4.0817    0.0000 H   0  0  0  0  0  0  0  0  0  0  0  0
   11.4088   -1.5322    0.0000 H   0  0  0  0  0  0  0  0  0  0  0  0
    9.1500   -0.2786    0.0000 H   0  0  0  0  0  0  0  0  0  0  0  0
    7.7190   -2.6922    0.0000 H   0  0  0  0  0  0  0  0  0  0  0  0
    7.7565    0.5476    0.0000 H   0  0  0  0  0  0  0  0  0  0  0  0
    6.3255   -1.8661    0.0000 H   0  0  0  0  0  0  0  0  0  0  0  0
    7.4708    1.1493    0.0000 H   0  0  0  0  0  0  0  0  0  0  0  0
    6.0218    3.6368    0.0000 H   0  0  0  0  0  0  0  0  0  0  0  0
    7.4708    2.8151    0.0000 H   0  0  0  0  0  0  0  0  0  0  0  0
    3.7320   -0.3278    0.0000 H   0  0  0  0  0  0  0  0  0  0  0  0
    4.8059   -0.3278    0.0000 H   0  0  0  0  0  0  0  0  0  0  0  0
    2.5369    3.6022    0.0000 H   0  0  0  0  0  0  0  0  0  0  0  0
    2.0000    2.6722    0.0000 H   0  0  0  0  0  0  0  0  0  0  0  0
  1 15  1  0  0  0  0
  1 18  1  0  0  0  0
  2 10  1  0  0  0  0
  2 11  1  0  0  0  0
  3  8  1  0  0  0  0
  3  9  1  0  0  0  0
  3 12  1  0  0  0  0
  4 20  1  0  0  0  0
  4 25  2  0  0  0  0
  5 22  2  0  0  0  0
  5 25  1  0  0  0  0
  6 22  1  0  0  0  0
  6 41  1  0  0  0  0
  6 42  1  0  0  0  0
  7 25  1  0  0  0  0
  7 43  1  0  0  0  0
  7 44  1  0  0  0  0
  8 10  1  0  0  0  0
  8 26  1  0  0  0  0
  8 27  1  0  0  0  0
  9 11  1  0  0  0  0
  9 28  1  0  0  0  0
  9 29  1  0  0  0  0
 10 31  1  0  0  0  0
 10 32  1  0  0  0  0
 11 30  1  0  0  0  0
 11 33  1  0  0  0  0
 12 13  2  0  0  0  0
 12 14  1  0  0  0  0
 13 16  1  0  0  0  0
 13 34  1  0  0  0  0
 14 17  2  0  0  0  0
 14 35  1  0  0  0  0
 15 16  2  0  0  0  0
 15 17  1  0  0  0  0
 16 36  1  0  0  0  0
 17 37  1  0  0  0  0
 18 19  1  0  0  0  0
 18 21  2  0  0  0  0
 19 20  2  0  0  0  0
 19 22  1  0  0  0  0
 20 23  1  0  0  0  0
 21 24  1  0  0  0  0
 21 38  1  0  0  0  0
 23 24  2  0  0  0  0
 23 39  1  0  0  0  0
 24 40  1  0  0  0  0
M  END
> <PUBCHEM_COMPOUND_CID>
3534

> <PUBCHEM_COMPOUND_CANONICALIZED>
1

> <PUBCHEM_CACTVS_COMPLEXITY>
428

> <PUBCHEM_CACTVS_HBOND_ACCEPTOR>
7

> <PUBCHEM_CACTVS_HBOND_DONOR>
2

> <PUBCHEM_CACTVS_ROTATABLE_BOND>
3

> <PUBCHEM_CACTVS_SUBSKEYS>
AAADceB7oABAAAAAAAAAAAAAAAAAAAAAAAA8eIEAAAAAAACx9AAAHgQQAAAADAjh3gYx8fdIFAigAyZiZACCgCkhCrAJmDg4ZJiKKKLg2dGHJAxogAL4yCcQgAAOAAQAACAGAAAACAAAQAwAAAAAAAAAAA==

> <PUBCHEM_IUPAC_OPENEYE_NAME>
5-(4-morpholinophenyl)sulfanylquinazoline-2,4-diamine

> <PUBCHEM_IUPAC_CAS_NAME>
5-[[4-(4-morpholinyl)phenyl]thio]quinazoline-2,4-diamine

> <PUBCHEM_IUPAC_NAME>
5-(4-morpholin-4-ylphenyl)sulfanylquinazoline-2,4-diamine

> <PUBCHEM_IUPAC_SYSTEMATIC_NAME>
5-(4-morpholin-4-ylphenyl)sulfanylquinazoline-2,4-diamine

> <PUBCHEM_IUPAC_TRADITIONAL_NAME>
[2-amino-5-[(4-morpholinophenyl)thio]quinazolin-4-yl]amine

> <PUBCHEM_IUPAC_INCHI>
InChI=1S/C18H19N5OS/c19-17-16-14(21-18(20)22-17)2-1-3-15(16)25-13-6-4-12(5-7-13)23-8-10-24-11-9-23/h1-7H,8-11H2,(H4,19,20,21,22)

> <PUBCHEM_IUPAC_INCHIKEY>
CZLWCJRHDBTCGQ-UHFFFAOYSA-N

> <PUBCHEM_XLOGP3_AA>
2.7

> <PUBCHEM_EXACT_MASS>
353.131031

> <PUBCHEM_MOLECULAR_FORMULA>
C18H19N5OS

> <PUBCHEM_MOLECULAR_WEIGHT>
353.44136

> <PUBCHEM_OPENEYE_CAN_SMILES>
C1COCCN1C2=CC=C(C=C2)SC3=CC=CC4=C3C(=NC(=N4)N)N

> <PUBCHEM_OPENEYE_ISO_SMILES>
C1COCCN1C2=CC=C(C=C2)SC3=CC=CC4=C3C(=NC(=N4)N)N

> <PUBCHEM_CACTVS_TPSA>
116

> <PUBCHEM_MONOISOTOPIC_WEIGHT>
353.131031

> <PUBCHEM_TOTAL_CHARGE>
0

> <PUBCHEM_HEAVY_ATOM_COUNT>
25

> <PUBCHEM_ATOM_DEF_STEREO_COUNT>
0

> <PUBCHEM_ATOM_UDEF_STEREO_COUNT>
0

> <PUBCHEM_BOND_DEF_STEREO_COUNT>
0

> <PUBCHEM_BOND_UDEF_STEREO_COUNT>
0

> <PUBCHEM_ISOTOPIC_ATOM_COUNT>
0

> <PUBCHEM_COMPONENT_COUNT>
1

> <PUBCHEM_CACTVS_TAUTO_COUNT>
12

> <PUBCHEM_COORDINATE_TYPE>
1
5
255

> <PUBCHEM_BONDANNOTATIONS>
12  13  8
12  14  8
13  16  8
14  17  8
15  16  8
15  17  8
18  19  8
18  21  8
19  20  8
19  22  8
20  23  8
21  24  8
23  24  8
4  20  8
4  25  8
5  22  8
5  25  8

$$$$

