7446
  -OEChem-06261202053D

 17 17  0     0  0  0  0  0  0999 V2000
    3.0672    1.0163    0.0072 O   0  0  0  0  0  0  0  0  0  0  0  0
    2.8620   -1.3484   -0.0225 O   0  0  0  0  0  0  0  0  0  0  0  0
   -3.1230    0.7001   -0.0068 O   0  0  0  0  0  0  0  0  0  0  0  0
    2.2768   -0.1065    0.0093 N   0  0  0  0  0  0  0  0  0  0  0  0
   -2.2210   -1.8508    0.0054 N   0  0  0  0  0  0  0  0  0  0  0  0
    0.9127    0.0121    0.0055 C   0  0  0  0  0  0  0  0  0  0  0  0
    0.0964   -1.0560    0.0075 C   0  0  0  0  0  0  0  0  0  0  0  0
    0.3617    1.3581   -0.0008 C   0  0  0  0  0  0  0  0  0  0  0  0
   -1.3706   -0.8797    0.0034 C   0  0  0  0  0  0  0  0  0  0  0  0
   -0.9470    1.6329   -0.0050 C   0  0  0  0  0  0  0  0  0  0  0  0
   -1.9151    0.5220   -0.0033 C   0  0  0  0  0  0  0  0  0  0  0  0
    0.4665   -2.0756    0.0128 H   0  0  0  0  0  0  0  0  0  0  0  0
    1.0392    2.2071   -0.0021 H   0  0  0  0  0  0  0  0  0  0  0  0
   -1.3211    2.6493   -0.0096 H   0  0  0  0  0  0  0  0  0  0  0  0
   -1.7365   -2.7548    0.0101 H   0  0  0  0  0  0  0  0  0  0  0  0
    3.7878    0.7518    0.6035 H   0  0  0  0  0  0  0  0  0  0  0  0
    3.4687   -1.2620   -0.7771 H   0  0  0  0  0  0  0  0  0  0  0  0
  1  4  1  0  0  0  0
  1 16  1  0  0  0  0
  2  4  1  0  0  0  0
  2 17  1  0  0  0  0
  3 11  2  0  0  0  0
  4  6  1  0  0  0  0
  5  9  2  0  0  0  0
  5 15  1  0  0  0  0
  6  7  2  0  0  0  0
  6  8  1  0  0  0  0
  7  9  1  0  0  0  0
  7 12  1  0  0  0  0
  8 10  2  0  0  0  0
  8 13  1  0  0  0  0
  9 11  1  0  0  0  0
 10 11  1  0  0  0  0
 10 14  1  0  0  0  0
M  END
> <PUBCHEM_COMPOUND_CID>
7446

> <PUBCHEM_CONFORMER_RMSD>
0.4

> <PUBCHEM_CONFORMER_DIVERSEORDER>
1
2
3

> <PUBCHEM_MMFF94_PARTIAL_CHARGES>
17
1 -0.38
10 -0.14
11 0.56
12 0.15
13 0.15
14 0.15
15 0.4
16 0.4
17 0.4
2 -0.38
3 -0.57
4 -0.14
5 -0.85
6 0.1
7 -0.14
8 -0.15
9 0.44

> <PUBCHEM_EFFECTIVE_ROTOR_COUNT>
1

> <PUBCHEM_PHARMACOPHORE_FEATURES>
8
1 1 acceptor
1 1 anion
1 2 acceptor
1 2 anion
1 3 acceptor
1 5 acceptor
1 5 donor
6 6 7 8 9 10 11 rings

> <PUBCHEM_HEAVY_ATOM_COUNT>
11

> <PUBCHEM_ATOM_DEF_STEREO_COUNT>
0

> <PUBCHEM_ATOM_UDEF_STEREO_COUNT>
0

> <PUBCHEM_BOND_DEF_STEREO_COUNT>
0

> <PUBCHEM_BOND_UDEF_STEREO_COUNT>
0

> <PUBCHEM_ISOTOPIC_ATOM_COUNT>
0

> <PUBCHEM_COMPONENT_COUNT>
1

> <PUBCHEM_CACTVS_TAUTO_COUNT>
1

> <PUBCHEM_CONFORMER_ID>
00001D1600000001

> <PUBCHEM_MMFF94_ENERGY>
23.4972

> <PUBCHEM_FEATURE_SELFOVERLAP>
40.673

> <PUBCHEM_SHAPE_FINGERPRINT>
10857977 72 18264781973255739672
12897270 3 18409727361514633308
12932764 1 17561089141442725526
14325111 11 18410575106143378529
16945 1 18338799042927142689
193761 8 17834395623011650369
20871998 184 18187362086963782727
21040471 1 18266741461953575137
23235685 24 18336833086425530881
23402655 69 18049742994786409181
23552423 10 18273213080110159574
2748010 2 18338235968440749471
369184 2 18411138056096624472
5084963 1 18043537315733145104
528886 8 18410017623783422049

> <PUBCHEM_SHAPE_MULTIPOLES>
198.8
4.15
1.78
0.57
1.5
0.14
0
0.28
0.01
-0.36
0
-0.03
-0.01
0.01

> <PUBCHEM_SHAPE_SELFOVERLAP>
413.039

> <PUBCHEM_SHAPE_VOLUME>
112.3

> <PUBCHEM_COORDINATE_TYPE>
2
5
10

$$$$

