14253
  -OEChem-06241222422D

 54 53  0     0  0  0  0  0  0999 V2000
    3.4030    0.0000    0.0000 S   0  0  0  0  0  0  0  0  0  0  0  0
    2.5369   -0.5000    0.0000 O   0  0  0  0  0  0  0  0  0  0  0  0
    2.9030    0.8660    0.0000 O   0  0  0  0  0  0  0  0  0  0  0  0
    3.9030   -0.8660    0.0000 O   0  0  0  0  0  0  0  0  0  0  0  0
   10.3312    0.0000    0.0000 C   0  0  0  0  0  0  0  0  0  0  0  0
    9.4651    0.5000    0.0000 C   0  0  0  0  0  0  0  0  0  0  0  0
   11.1972    0.5000    0.0000 C   0  0  0  0  0  0  0  0  0  0  0  0
    8.5991    0.0000    0.0000 C   0  0  0  0  0  0  0  0  0  0  0  0
   12.0632    0.0000    0.0000 C   0  0  0  0  0  0  0  0  0  0  0  0
    7.7331    0.5000    0.0000 C   0  0  0  0  0  0  0  0  0  0  0  0
   12.9292    0.5000    0.0000 C   0  0  0  0  0  0  0  0  0  0  0  0
    6.8671    0.0000    0.0000 C   0  0  0  0  0  0  0  0  0  0  0  0
   13.7953    0.0000    0.0000 C   0  0  0  0  0  0  0  0  0  0  0  0
    6.0010    0.5000    0.0000 C   0  0  0  0  0  0  0  0  0  0  0  0
   14.6613    0.5000    0.0000 C   0  0  0  0  0  0  0  0  0  0  0  0
    5.1350    0.0000    0.0000 C   0  0  0  0  0  0  0  0  0  0  0  0
   15.5273    0.0000    0.0000 C   0  0  0  0  0  0  0  0  0  0  0  0
    4.2690    0.5000    0.0000 C   0  0  0  0  0  0  0  0  0  0  0  0
   16.3933    0.5000    0.0000 C   0  0  0  0  0  0  0  0  0  0  0  0
   17.2594    0.0000    0.0000 C   0  0  0  0  0  0  0  0  0  0  0  0
    9.9326   -0.4749    0.0000 H   0  0  0  0  0  0  0  0  0  0  0  0
   10.7297   -0.4749    0.0000 H   0  0  0  0  0  0  0  0  0  0  0  0
    9.8637    0.9749    0.0000 H   0  0  0  0  0  0  0  0  0  0  0  0
    9.0666    0.9749    0.0000 H   0  0  0  0  0  0  0  0  0  0  0  0
   11.5957    0.9749    0.0000 H   0  0  0  0  0  0  0  0  0  0  0  0
   10.7987    0.9749    0.0000 H   0  0  0  0  0  0  0  0  0  0  0  0
    8.2006   -0.4749    0.0000 H   0  0  0  0  0  0  0  0  0  0  0  0
    8.9976   -0.4749    0.0000 H   0  0  0  0  0  0  0  0  0  0  0  0
   11.6647   -0.4749    0.0000 H   0  0  0  0  0  0  0  0  0  0  0  0
   12.4617   -0.4749    0.0000 H   0  0  0  0  0  0  0  0  0  0  0  0
    8.1316    0.9749    0.0000 H   0  0  0  0  0  0  0  0  0  0  0  0
    7.3346    0.9749    0.0000 H   0  0  0  0  0  0  0  0  0  0  0  0
   13.3278    0.9749    0.0000 H   0  0  0  0  0  0  0  0  0  0  0  0
   12.5307    0.9749    0.0000 H   0  0  0  0  0  0  0  0  0  0  0  0
    6.4685   -0.4749    0.0000 H   0  0  0  0  0  0  0  0  0  0  0  0
    7.2656   -0.4749    0.0000 H   0  0  0  0  0  0  0  0  0  0  0  0
   13.3967   -0.4749    0.0000 H   0  0  0  0  0  0  0  0  0  0  0  0
   14.1938   -0.4749    0.0000 H   0  0  0  0  0  0  0  0  0  0  0  0
    6.3996    0.9749    0.0000 H   0  0  0  0  0  0  0  0  0  0  0  0
    5.6025    0.9749    0.0000 H   0  0  0  0  0  0  0  0  0  0  0  0
   15.0598    0.9749    0.0000 H   0  0  0  0  0  0  0  0  0  0  0  0
   14.2628    0.9749    0.0000 H   0  0  0  0  0  0  0  0  0  0  0  0
    4.7365   -0.4749    0.0000 H   0  0  0  0  0  0  0  0  0  0  0  0
    5.5335   -0.4749    0.0000 H   0  0  0  0  0  0  0  0  0  0  0  0
   15.1288   -0.4749    0.0000 H   0  0  0  0  0  0  0  0  0  0  0  0
   15.9258   -0.4749    0.0000 H   0  0  0  0  0  0  0  0  0  0  0  0
    4.6675    0.9749    0.0000 H   0  0  0  0  0  0  0  0  0  0  0  0
    3.8705    0.9749    0.0000 H   0  0  0  0  0  0  0  0  0  0  0  0
   16.7919    0.9749    0.0000 H   0  0  0  0  0  0  0  0  0  0  0  0
   15.9948    0.9749    0.0000 H   0  0  0  0  0  0  0  0  0  0  0  0
   16.9494   -0.5369    0.0000 H   0  0  0  0  0  0  0  0  0  0  0  0
   17.7963   -0.3100    0.0000 H   0  0  0  0  0  0  0  0  0  0  0  0
   17.5694    0.5369    0.0000 H   0  0  0  0  0  0  0  0  0  0  0  0
    2.0000   -0.1900    0.0000 H   0  0  0  0  0  0  0  0  0  0  0  0
  1  2  1  0  0  0  0
  1  3  2  0  0  0  0
  1  4  2  0  0  0  0
  1 18  1  0  0  0  0
  2 54  1  0  0  0  0
  5  6  1  0  0  0  0
  5  7  1  0  0  0  0
  5 21  1  0  0  0  0
  5 22  1  0  0  0  0
  6  8  1  0  0  0  0
  6 23  1  0  0  0  0
  6 24  1  0  0  0  0
  7  9  1  0  0  0  0
  7 25  1  0  0  0  0
  7 26  1  0  0  0  0
  8 10  1  0  0  0  0
  8 27  1  0  0  0  0
  8 28  1  0  0  0  0
  9 11  1  0  0  0  0
  9 29  1  0  0  0  0
  9 30  1  0  0  0  0
 10 12  1  0  0  0  0
 10 31  1  0  0  0  0
 10 32  1  0  0  0  0
 11 13  1  0  0  0  0
 11 33  1  0  0  0  0
 11 34  1  0  0  0  0
 12 14  1  0  0  0  0
 12 35  1  0  0  0  0
 12 36  1  0  0  0  0
 13 15  1  0  0  0  0
 13 37  1  0  0  0  0
 13 38  1  0  0  0  0
 14 16  1  0  0  0  0
 14 39  1  0  0  0  0
 14 40  1  0  0  0  0
 15 17  1  0  0  0  0
 15 41  1  0  0  0  0
 15 42  1  0  0  0  0
 16 18  1  0  0  0  0
 16 43  1  0  0  0  0
 16 44  1  0  0  0  0
 17 19  1  0  0  0  0
 17 45  1  0  0  0  0
 17 46  1  0  0  0  0
 18 47  1  0  0  0  0
 18 48  1  0  0  0  0
 19 20  1  0  0  0  0
 19 49  1  0  0  0  0
 19 50  1  0  0  0  0
 20 51  1  0  0  0  0
 20 52  1  0  0  0  0
 20 53  1  0  0  0  0
M  END
> <PUBCHEM_COMPOUND_CID>
14253

> <PUBCHEM_COMPOUND_CANONICALIZED>
1

> <PUBCHEM_CACTVS_COMPLEXITY>
281

> <PUBCHEM_CACTVS_HBOND_ACCEPTOR>
3

> <PUBCHEM_CACTVS_HBOND_DONOR>
1

> <PUBCHEM_CACTVS_ROTATABLE_BOND>
15

> <PUBCHEM_CACTVS_SUBSKEYS>
AAADcfB4MABAAAAAAAAAAAAAAAAAAAAAAAAAAAAAAAAAAAAAAAAAGAQACAAACACEQACCAAAAAIIAAAAAAHBAAAAAAAAAAAAAAAAAAAIAAAAAAAAAAAAAAAEAgIAAAAAAAAAAAAAAAAAAAAAAAAAAAAAAAA==

> <PUBCHEM_IUPAC_OPENEYE_NAME>
hexadecane-1-sulfonic acid

> <PUBCHEM_IUPAC_CAS_NAME>
1-hexadecanesulfonic acid

> <PUBCHEM_IUPAC_NAME>
hexadecane-1-sulfonic acid

> <PUBCHEM_IUPAC_SYSTEMATIC_NAME>
hexadecane-1-sulfonic acid

> <PUBCHEM_IUPAC_TRADITIONAL_NAME>
hexadecane-1-sulfonic acid

> <PUBCHEM_IUPAC_INCHI>
InChI=1S/C16H34O3S/c1-2-3-4-5-6-7-8-9-10-11-12-13-14-15-16-20(17,18)19/h2-16H2,1H3,(H,17,18,19)

> <PUBCHEM_IUPAC_INCHIKEY>
SSILHZFTFWOUJR-UHFFFAOYSA-N

> <PUBCHEM_XLOGP3_AA>
6.9

> <PUBCHEM_EXACT_MASS>
306.222866

> <PUBCHEM_MOLECULAR_FORMULA>
C16H34O3S

> <PUBCHEM_MOLECULAR_WEIGHT>
306.50436

> <PUBCHEM_OPENEYE_CAN_SMILES>
CCCCCCCCCCCCCCCCS(=O)(=O)O

> <PUBCHEM_OPENEYE_ISO_SMILES>
CCCCCCCCCCCCCCCCS(=O)(=O)O

> <PUBCHEM_CACTVS_TPSA>
62.8

> <PUBCHEM_MONOISOTOPIC_WEIGHT>
306.222866

> <PUBCHEM_TOTAL_CHARGE>
0

> <PUBCHEM_HEAVY_ATOM_COUNT>
20

> <PUBCHEM_ATOM_DEF_STEREO_COUNT>
0

> <PUBCHEM_ATOM_UDEF_STEREO_COUNT>
0

> <PUBCHEM_BOND_DEF_STEREO_COUNT>
0

> <PUBCHEM_BOND_UDEF_STEREO_COUNT>
0

> <PUBCHEM_ISOTOPIC_ATOM_COUNT>
0

> <PUBCHEM_COMPONENT_COUNT>
1

> <PUBCHEM_CACTVS_TAUTO_COUNT>
1

> <PUBCHEM_COORDINATE_TYPE>
1
5
255

$$$$

