51090966
  -OEChem-06241223013D

 47 48  0     0  0  0  0  0  0999 V2000
   -4.2773   -1.8601    0.0215 F   0  0  0  0  0  0  0  0  0  0  0  0
    4.0107   -0.3836    1.6454 O   0  0  0  0  0  0  0  0  0  0  0  0
   -1.2106   -0.9320   -0.2247 N   0  0  0  0  0  0  0  0  0  0  0  0
    2.4604   -0.9196    0.0165 N   0  0  0  0  0  0  0  0  0  0  0  0
    1.4506   -1.4052    0.9301 C   0  0  0  0  0  0  0  0  0  0  0  0
    0.6179   -2.5192    0.2910 C   0  0  0  0  0  0  0  0  0  0  0  0
    0.5376   -0.2696    1.3983 C   0  0  0  0  0  0  0  0  0  0  0  0
   -0.4210    0.1920    0.2961 C   0  0  0  0  0  0  0  0  0  0  0  0
   -0.3431   -1.9823   -0.7743 C   0  0  0  0  0  0  0  0  0  0  0  0
   -2.1569   -0.4667   -1.2385 C   0  0  0  0  0  0  0  0  0  0  0  0
   -3.3436    0.2253   -0.6223 C   0  0  0  0  0  0  0  0  0  0  0  0
    3.6798   -0.4403    0.4626 C   0  0  0  0  0  0  0  0  0  0  0  0
   -4.3535   -0.5225   -0.0171 C   0  0  0  0  0  0  0  0  0  0  0  0
   -3.4317    1.6170   -0.6572 C   0  0  0  0  0  0  0  0  0  0  0  0
    4.5930    0.0266   -0.6372 C   0  0  0  0  0  0  0  0  0  0  0  0
   -5.4517    0.1213    0.5532 C   0  0  0  0  0  0  0  0  0  0  0  0
   -4.5299    2.2608   -0.0869 C   0  0  0  0  0  0  0  0  0  0  0  0
    4.4811    1.3232   -0.9829 C   0  0  0  0  0  0  0  0  0  0  0  0
    5.5009   -0.9653   -1.3024 C   0  0  0  0  0  0  0  0  0  0  0  0
   -5.5400    1.5130    0.5182 C   0  0  0  0  0  0  0  0  0  0  0  0
    3.5450    2.3364   -0.3852 C   0  0  0  0  0  0  0  0  0  0  0  0
    4.1824    3.0507    0.7958 C   0  0  0  0  0  0  0  0  0  0  0  0
    1.9669   -1.8191    1.8049 H   0  0  0  0  0  0  0  0  0  0  0  0
   -0.0516   -0.6171    2.2572 H   0  0  0  0  0  0  0  0  0  0  0  0
    1.1301    0.5846    1.7474 H   0  0  0  0  0  0  0  0  0  0  0  0
    1.2724   -3.2767   -0.1568 H   0  0  0  0  0  0  0  0  0  0  0  0
    0.0352   -3.0239    1.0730 H   0  0  0  0  0  0  0  0  0  0  0  0
    0.2180   -1.6132   -1.6422 H   0  0  0  0  0  0  0  0  0  0  0  0
   -0.9557   -2.8231   -1.1226 H   0  0  0  0  0  0  0  0  0  0  0  0
   -1.0723    0.9521    0.7411 H   0  0  0  0  0  0  0  0  0  0  0  0
    0.1456    0.6813   -0.5070 H   0  0  0  0  0  0  0  0  0  0  0  0
   -1.6695    0.1759   -1.9846 H   0  0  0  0  0  0  0  0  0  0  0  0
   -2.5539   -1.3173   -1.8105 H   0  0  0  0  0  0  0  0  0  0  0  0
    2.2494   -0.8879   -0.9768 H   0  0  0  0  0  0  0  0  0  0  0  0
   -2.6520    2.2121   -1.1253 H   0  0  0  0  0  0  0  0  0  0  0  0
   -6.2378   -0.4612    1.0244 H   0  0  0  0  0  0  0  0  0  0  0  0
   -4.5986    3.3444   -0.1140 H   0  0  0  0  0  0  0  0  0  0  0  0
    5.1221    1.6977   -1.7792 H   0  0  0  0  0  0  0  0  0  0  0  0
    4.9185   -1.7893   -1.7266 H   0  0  0  0  0  0  0  0  0  0  0  0
    6.0786   -0.5080   -2.1121 H   0  0  0  0  0  0  0  0  0  0  0  0
    6.2063   -1.3773   -0.5741 H   0  0  0  0  0  0  0  0  0  0  0  0
   -6.3950    2.0142    0.9623 H   0  0  0  0  0  0  0  0  0  0  0  0
    2.5969    1.8848   -0.0770 H   0  0  0  0  0  0  0  0  0  0  0  0
    3.2877    3.0690   -1.1594 H   0  0  0  0  0  0  0  0  0  0  0  0
    3.4987    3.8101    1.1890 H   0  0  0  0  0  0  0  0  0  0  0  0
    5.1094    3.5539    0.5004 H   0  0  0  0  0  0  0  0  0  0  0  0
    4.4165    2.3573    1.6095 H   0  0  0  0  0  0  0  0  0  0  0  0
  1 13  1  0  0  0  0
  2 12  2  0  0  0  0
  3  8  1  0  0  0  0
  3  9  1  0  0  0  0
  3 10  1  0  0  0  0
  4  5  1  0  0  0  0
  4 12  1  0  0  0  0
  4 34  1  0  0  0  0
  5  6  1  0  0  0  0
  5  7  1  0  0  0  0
  5 23  1  0  0  0  0
  6  9  1  0  0  0  0
  6 26  1  0  0  0  0
  6 27  1  0  0  0  0
  7  8  1  0  0  0  0
  7 24  1  0  0  0  0
  7 25  1  0  0  0  0
  8 30  1  0  0  0  0
  8 31  1  0  0  0  0
  9 28  1  0  0  0  0
  9 29  1  0  0  0  0
 10 11  1  0  0  0  0
 10 32  1  0  0  0  0
 10 33  1  0  0  0  0
 11 13  1  0  0  0  0
 11 14  2  0  0  0  0
 12 15  1  0  0  0  0
 13 16  2  0  0  0  0
 14 17  1  0  0  0  0
 14 35  1  0  0  0  0
 15 18  2  0  0  0  0
 15 19  1  0  0  0  0
 16 20  1  0  0  0  0
 16 36  1  0  0  0  0
 17 20  2  0  0  0  0
 17 37  1  0  0  0  0
 18 21  1  0  0  0  0
 18 38  1  0  0  0  0
 19 39  1  0  0  0  0
 19 40  1  0  0  0  0
 19 41  1  0  0  0  0
 20 42  1  0  0  0  0
 21 22  1  0  0  0  0
 21 43  1  0  0  0  0
 21 44  1  0  0  0  0
 22 45  1  0  0  0  0
 22 46  1  0  0  0  0
 22 47  1  0  0  0  0
M  END
> <PUBCHEM_COMPOUND_CID>
51090966

> <PUBCHEM_CONFORMER_RMSD>
0.8

> <PUBCHEM_CONFORMER_DIVERSEORDER>
1
178
53
271
194
246
42
159
146
213
101
238
231
212
185
163
268
135
227
205
62
136
48
180
182
270
264
134
266
83
193
88
152
65
175
123
155
222
73
240
198
239
131
188
251
154
229
58
177
258
68
86
37
242
167
249
109
108
103
250
71
192
29
94
216
207
245
140
273
144
142
69
25
208
189
143
156
253
119
220
243
82
210
32
75
195
20
209
30
196
84
66
254
171
14
120
104
223
3
228
170
74
181
12
151
263
115
237
197
169
90
187
100
99
15
44
105
183
158
63
259
165
52
186
112
147
9
114
233
202
174
4
166
257
141
214
57
46
118
85
244
201
41
148
226
107
203
173
55
102
184
16
160
137
43
35
125
206
64
247
262
93
111
241
230
39
260
199
122
248
11
200
215
49
133
132
121
255
138
40
18
128
265
80
179
218
28
6
27
76
7
204
96
113
10
219
17
45
23
236
190
31
95
157
127
38
269
50
13
81
92
217
61
145
161
221
56
129
153
272
47
252
126
70
139
78
67
91
124
2
106
22
36
224
8
164
191
34
168
60
51
176
98
89
234
117
97
26
225
162
211
150
59
5
79
232
172
87
24
72
149
116
235
267
33
77
130
110
21
19
261
256
54

> <PUBCHEM_MMFF94_PARTIAL_CHARGES>
25
1 -0.19
10 0.41
11 -0.14
12 0.62
13 0.19
14 -0.15
15 -0.12
16 -0.15
17 -0.15
18 -0.29
19 0.14
2 -0.57
20 -0.15
21 0.14
3 -0.81
34 0.37
35 0.15
36 0.15
37 0.15
38 0.15
4 -0.73
42 0.15
5 0.3
8 0.27
9 0.27

> <PUBCHEM_EFFECTIVE_ROTOR_COUNT>
7.2

> <PUBCHEM_PHARMACOPHORE_FEATURES>
7
1 19 hydrophobe
1 2 acceptor
1 22 hydrophobe
1 3 cation
1 4 donor
6 11 13 14 16 17 20 rings
6 3 5 6 7 8 9 rings

> <PUBCHEM_HEAVY_ATOM_COUNT>
22

> <PUBCHEM_ATOM_DEF_STEREO_COUNT>
0

> <PUBCHEM_ATOM_UDEF_STEREO_COUNT>
0

> <PUBCHEM_BOND_DEF_STEREO_COUNT>
1

> <PUBCHEM_BOND_UDEF_STEREO_COUNT>
0

> <PUBCHEM_ISOTOPIC_ATOM_COUNT>
0

> <PUBCHEM_COMPONENT_COUNT>
1

> <PUBCHEM_CACTVS_TAUTO_COUNT>
2

> <PUBCHEM_CONFORMER_ID>
030B961600000001

> <PUBCHEM_MMFF94_ENERGY>
35.936

> <PUBCHEM_FEATURE_SELFOVERLAP>
35.52

> <PUBCHEM_SHAPE_FINGERPRINT>
10447042 23 8142080936560362720
10670039 82 18263922305740316964
11796584 16 6050439297696325581
12403259 118 18270980036376477633
12596602 18 12463566283905697332
12616971 3 18410866472487885098
12892183 10 11887960938916840222
12925494 130 18268434710457521189
13544653 18 8070031085810431878
14251764 75 18199458866885902020
14341114 328 17917992810589418483
14429115 67 9583528624248408720
14528608 73 18412265025619128957
146900 427 18060701705865456225
14790565 3 18408882928015977553
14848178 5 9007059058450469869
14849402 71 17989489598532973416
15183329 4 4751157393800906521
15788980 27 6988317244585339487
1601671 61 18337112362030690064
17349148 13 11743835898016987635
17844677 252 18408316679247747175
17959699 21 18336263449260842256
1813 80 5039957351251038594
18222031 100 10807931604633395106
18335252 114 18337678640715836444
19752476 56 18335145233456940576
20645477 70 6916256347648904682
21250096 35 9439403531808884111
21728266 224 10231754479343324855
21864079 5 18338249188482117764
22079108 93 17561080289457216947
23559900 14 18263646340937829454
2637199 183 18413669123616877506
34797466 226 18113892741517950245
5104073 3 18202005417071167209
53794403 172 18057031412079137708
54446538 1 18411140238040387173
633830 44 18335428949831294150
8988823 20 10663815244152780110
90127 26 18411975832522981602
960060 61 5617252654397088784

> <PUBCHEM_SHAPE_MULTIPOLES>
429.64
13.76
2.71
1.2
3.42
1.13
-0.1
6.13
1.05
-1.18
-0.14
-0.94
-0.08
0.1

> <PUBCHEM_SHAPE_SELFOVERLAP>
880.462

> <PUBCHEM_SHAPE_VOLUME>
247.8

> <PUBCHEM_COORDINATE_TYPE>
2
5
10

$$$$

