4414
  -OEChem-06261200063D

 50 53  0     1  0  0  0  0  0999 V2000
    3.3770    0.4494    1.9987 S   0  0  0  0  0  0  0  0  0  0  0  0
    1.8041    1.7426   -1.8806 O   0  0  0  0  0  0  0  0  0  0  0  0
   -0.0495   -1.2347   -0.9525 O   0  0  0  0  0  0  0  0  0  0  0  0
    5.0995   -1.6257    0.0812 O   0  5  0  0  0  0  0  0  0  0  0  0
    5.9526   -0.6748   -1.8168 O   0  0  0  0  0  0  0  0  0  0  0  0
   -1.7949   -2.3990   -0.1554 O   0  0  0  0  0  0  0  0  0  0  0  0
    2.9752    0.1660   -0.5744 N   0  0  0  0  0  0  0  0  0  0  0  0
   -1.3195    0.2871    0.2909 N   0  0  0  0  0  0  0  0  0  0  0  0
    2.3499   -0.2808    0.6692 C   0  0  2  0  0  0  0  0  0  0  0  0
    4.6133    1.1968    0.8240 C   0  0  0  0  0  0  0  0  0  0  0  0
    4.3787    0.5247   -0.5514 C   0  0  1  0  0  0  0  0  0  0  0  0
    1.1087    0.5274    0.2545 C   0  0  1  0  0  0  0  0  0  0  0  0
    1.9347    0.9487   -0.9770 C   0  0  0  0  0  0  0  0  0  0  0  0
    4.3282    2.7071    0.7558 C   0  0  0  0  0  0  0  0  0  0  0  0
    6.0219    0.9863    1.3914 C   0  0  0  0  0  0  0  0  0  0  0  0
   -0.1413   -0.2504   -0.2140 C   0  0  0  0  0  0  0  0  0  0  0  0
    5.2269   -0.7155   -0.7839 C   0  0  0  0  0  0  0  0  0  0  0  0
   -2.6440   -0.1630    0.0731 C   0  0  0  0  0  0  0  0  0  0  0  0
   -3.7123    0.7380    0.0832 C   0  0  0  0  0  0  0  0  0  0  0  0
   -2.8378   -1.5204   -0.1472 C   0  0  0  0  0  0  0  0  0  0  0  0
   -5.0210    0.2466   -0.1381 C   0  0  0  0  0  0  0  0  0  0  0  0
   -4.1246   -2.0036   -0.3646 C   0  0  0  0  0  0  0  0  0  0  0  0
   -3.5231    2.1117    0.3053 C   0  0  0  0  0  0  0  0  0  0  0  0
   -5.2101   -1.1271   -0.3605 C   0  0  0  0  0  0  0  0  0  0  0  0
   -6.1018    1.1434   -0.1300 C   0  0  0  0  0  0  0  0  0  0  0  0
   -4.6084    2.9884    0.3099 C   0  0  0  0  0  0  0  0  0  0  0  0
   -5.8952    2.5051    0.0929 C   0  0  0  0  0  0  0  0  0  0  0  0
   -1.8071   -3.4482    0.7903 C   0  0  0  0  0  0  0  0  0  0  0  0
   -0.3801   -3.8261    1.1258 C   0  0  0  0  0  0  0  0  0  0  0  0
    2.2281   -1.3666    0.7201 H   0  0  0  0  0  0  0  0  0  0  0  0
    4.5637    1.2449   -1.3589 H   0  0  0  0  0  0  0  0  0  0  0  0
    0.8837    1.3819    0.9047 H   0  0  0  0  0  0  0  0  0  0  0  0
    5.0254    3.1971    0.0659 H   0  0  0  0  0  0  0  0  0  0  0  0
    3.3155    2.9303    0.4049 H   0  0  0  0  0  0  0  0  0  0  0  0
    4.4517    3.1869    1.7342 H   0  0  0  0  0  0  0  0  0  0  0  0
    6.1691    1.5661    2.3110 H   0  0  0  0  0  0  0  0  0  0  0  0
    6.2414   -0.0558    1.6423 H   0  0  0  0  0  0  0  0  0  0  0  0
    6.7798    1.3257    0.6758 H   0  0  0  0  0  0  0  0  0  0  0  0
   -1.2244    1.1789    0.7649 H   0  0  0  0  0  0  0  0  0  0  0  0
   -4.3003   -3.0602   -0.5476 H   0  0  0  0  0  0  0  0  0  0  0  0
   -2.5450    2.5540    0.4676 H   0  0  0  0  0  0  0  0  0  0  0  0
   -6.2070   -1.5267   -0.5345 H   0  0  0  0  0  0  0  0  0  0  0  0
   -7.1164    0.7879   -0.2977 H   0  0  0  0  0  0  0  0  0  0  0  0
   -4.4487    4.0493    0.4800 H   0  0  0  0  0  0  0  0  0  0  0  0
   -6.7396    3.1881    0.0959 H   0  0  0  0  0  0  0  0  0  0  0  0
   -2.3245   -3.1484    1.7103 H   0  0  0  0  0  0  0  0  0  0  0  0
   -2.3267   -4.3125    0.3626 H   0  0  0  0  0  0  0  0  0  0  0  0
   -0.3528   -4.6561    1.8374 H   0  0  0  0  0  0  0  0  0  0  0  0
    0.1662   -4.1170    0.2225 H   0  0  0  0  0  0  0  0  0  0  0  0
    0.1528   -2.9738    1.5603 H   0  0  0  0  0  0  0  0  0  0  0  0
  1  9  1  0  0  0  0
  1 10  1  0  0  0  0
  2 13  2  0  0  0  0
  3 16  2  0  0  0  0
  4 17  1  0  0  0  0
  5 17  2  0  0  0  0
  6 20  1  0  0  0  0
  6 28  1  0  0  0  0
  7  9  1  0  0  0  0
  7 11  1  0  0  0  0
  7 13  1  0  0  0  0
  8 16  1  0  0  0  0
  8 18  1  0  0  0  0
  8 39  1  0  0  0  0
  9 12  1  0  0  0  0
  9 30  1  0  0  0  0
 10 11  1  0  0  0  0
 10 14  1  0  0  0  0
 10 15  1  0  0  0  0
 11 17  1  0  0  0  0
 11 31  1  0  0  0  0
 12 13  1  0  0  0  0
 12 16  1  0  0  0  0
 12 32  1  0  0  0  0
 14 33  1  0  0  0  0
 14 34  1  0  0  0  0
 14 35  1  0  0  0  0
 15 36  1  0  0  0  0
 15 37  1  0  0  0  0
 15 38  1  0  0  0  0
 18 19  1  0  0  0  0
 18 20  2  0  0  0  0
 19 21  1  0  0  0  0
 19 23  2  0  0  0  0
 20 22  1  0  0  0  0
 21 24  1  0  0  0  0
 21 25  2  0  0  0  0
 22 24  2  0  0  0  0
 22 40  1  0  0  0  0
 23 26  1  0  0  0  0
 23 41  1  0  0  0  0
 24 42  1  0  0  0  0
 25 27  1  0  0  0  0
 25 43  1  0  0  0  0
 26 27  2  0  0  0  0
 26 44  1  0  0  0  0
 27 45  1  0  0  0  0
 28 29  1  0  0  0  0
 28 46  1  0  0  0  0
 28 47  1  0  0  0  0
 29 48  1  0  0  0  0
 29 49  1  0  0  0  0
 29 50  1  0  0  0  0
M  CHG  1   4  -1
M  END
> <PUBCHEM_COMPOUND_CID>
4414

> <PUBCHEM_CONFORMER_RMSD>
0.8

> <PUBCHEM_CONFORMER_DIVERSEORDER>
1
175
184
61
187
44
42
139
126
10
194
135
179
46
132
108
52
196
30
117
195
190
36
151
121
147
43
193
113
33
138
63
185
152
68
191
39
158
111
180
7
186
177
198
50
166
3
169
18
60
73
141
188
92
173
114
96
12
149
65
71
11
131
51
197
143
159
123
78
99
93
47
129
163
192
82
124
162
59
120
80
67
181
127
27
189
98
24
64
20
40
137
26
154
91
55
75
105
142
85
148
86
103
102
83
15
183
29
160
87
136
37
35
19
110
171
6
134
84
32
8
88
161
122
170
155
94
182
45
157
17
130
9
77
118
95
25
2
41
38
49
156
89
168
140
23
144
62
119
146
28
150
115
106
104
167
172
58
133
69
97
14
128
56
48
125
90
74
79
31
22
116
21
100
81
70
66
34
13
72
54
165
109
76
16
101
107
164
112
176
53
4
153
178
57
174
5
145

> <PUBCHEM_MMFF94_PARTIAL_CHARGES>
31
1 -0.45
10 0.23
11 0.19
12 0.11
13 0.58
16 0.58
17 0.91
18 0.12
2 -0.57
20 0.08
22 -0.15
23 -0.15
24 -0.15
25 -0.15
26 -0.15
27 -0.15
28 0.28
3 -0.57
39 0.37
4 -0.9
40 0.15
41 0.15
42 0.15
43 0.15
44 0.15
45 0.15
5 -0.9
6 -0.36
7 -0.59
8 -0.55
9 0.44

> <PUBCHEM_EFFECTIVE_ROTOR_COUNT>
6.8

> <PUBCHEM_PHARMACOPHORE_FEATURES>
13
1 12 anion
1 2 acceptor
1 3 acceptor
1 4 acceptor
1 5 acceptor
1 6 acceptor
1 8 donor
3 10 14 15 hydrophobe
3 4 5 17 anion
4 7 9 12 13 rings
6 18 19 20 21 22 24 rings
6 19 21 23 25 26 27 rings
7 1 7 9 10 11 12 13 rings

> <PUBCHEM_HEAVY_ATOM_COUNT>
29

> <PUBCHEM_ATOM_DEF_STEREO_COUNT>
0

> <PUBCHEM_ATOM_UDEF_STEREO_COUNT>
3

> <PUBCHEM_BOND_DEF_STEREO_COUNT>
0

> <PUBCHEM_BOND_UDEF_STEREO_COUNT>
0

> <PUBCHEM_ISOTOPIC_ATOM_COUNT>
0

> <PUBCHEM_COMPONENT_COUNT>
1

> <PUBCHEM_CACTVS_TAUTO_COUNT>
2

> <PUBCHEM_CONFORMER_ID>
0000113E00000001

> <PUBCHEM_MMFF94_ENERGY>
106.8157

> <PUBCHEM_FEATURE_SELFOVERLAP>
70.085

> <PUBCHEM_SHAPE_FINGERPRINT>
10411042 1 17832993742109538047
10674148 151 18272929458552108522
11049842 53 18198882838350486742
11796584 16 18259700116944696638
12107183 9 18196383738667320186
12128747 34 18186799214461944086
12166972 35 18409162208022196593
12236239 1 18131635568913074425
12403259 415 18113335310497257753
12633257 1 16845574192693085841
13583140 156 17677896725824722402
13782708 43 17313387769103693263
14117953 113 18272088357657976997
14790565 3 18340488975483396227
14840074 17 17203323425036367271
15183329 4 18410289250384305270
15537594 2 17060340729837058930
15788980 27 18413103957122734384
15799311 1 15410892950907134082
15927050 60 18410856586186209755
17818456 19 18413386531674603893
17844677 252 18335135363004701448
18608769 82 18335420124491327683
19958102 18 18341903999687860191
21033648 29 17749967582489604192
21279426 13 18187643647649701166
21315764 268 18335146366674464581
22061861 79 17167859781320715276
23559900 14 18186802478552829368
23569943 247 17058394680234786394
3004659 81 18335417989580922678
3383291 50 18199749150988288699
3633792 109 18058471841167624919
4015057 19 17095525071708256689
4073 2 18341331090158901474
5104073 3 18342179968152351379
513202 73 16772401831588409062
5265222 85 18264475210150264350
5283173 99 18260830405770000169
5385378 56 18196648717154512539
6328613 192 18342164558485290180
6371380 46 18409728504482764910
9981440 41 18343579651683465875

> <PUBCHEM_SHAPE_MULTIPOLES>
561.35
15.64
3.44
1.27
2.81
1.85
0.01
-7.04
0.28
-3.54
-0.96
2.07
-0.02
0.58

> <PUBCHEM_SHAPE_SELFOVERLAP>
1211.185

> <PUBCHEM_SHAPE_VOLUME>
310.7

> <PUBCHEM_COORDINATE_TYPE>
2
5
10

$$$$

