12283
  -OEChem-06261206452D

 15 15  0     0  0  0  0  0  0999 V2000
    2.0000   -1.1900    0.0000 O   0  0  0  0  0  0  0  0  0  0  0  0
    3.7320    1.8100    0.0000 O   0  0  0  0  0  0  0  0  0  0  0  0
    3.7320   -1.1900    0.0000 N   0  0  0  0  0  0  0  0  0  0  0  0
    2.8660    0.3100    0.0000 N   0  0  0  0  0  0  0  0  0  0  0  0
    4.5981   -0.6900    0.0000 C   0  0  0  0  0  0  0  0  0  0  0  0
    4.5981    0.3100    0.0000 C   0  0  0  0  0  0  0  0  0  0  0  0
    2.8660   -0.6900    0.0000 C   0  0  0  0  0  0  0  0  0  0  0  0
    3.7320    0.8100    0.0000 C   0  0  0  0  0  0  0  0  0  0  0  0
    5.4641   -1.1900    0.0000 C   0  0  0  0  0  0  0  0  0  0  0  0
    3.7320   -1.8100    0.0000 H   0  0  0  0  0  0  0  0  0  0  0  0
    5.1350    0.6200    0.0000 H   0  0  0  0  0  0  0  0  0  0  0  0
    5.1541   -1.7269    0.0000 H   0  0  0  0  0  0  0  0  0  0  0  0
    6.0010   -1.5000    0.0000 H   0  0  0  0  0  0  0  0  0  0  0  0
    5.7741   -0.6531    0.0000 H   0  0  0  0  0  0  0  0  0  0  0  0
    2.3291    0.6200    0.0000 H   0  0  0  0  0  0  0  0  0  0  0  0
  1  7  2  0  0  0  0
  2  8  2  0  0  0  0
  3  5  1  0  0  0  0
  3  7  1  0  0  0  0
  3 10  1  0  0  0  0
  4  7  1  0  0  0  0
  4  8  1  0  0  0  0
  4 15  1  0  0  0  0
  5  6  2  0  0  0  0
  5  9  1  0  0  0  0
  6  8  1  0  0  0  0
  6 11  1  0  0  0  0
  9 12  1  0  0  0  0
  9 13  1  0  0  0  0
  9 14  1  0  0  0  0
M  END
> <PUBCHEM_COMPOUND_CID>
12283

> <PUBCHEM_COMPOUND_CANONICALIZED>
1

> <PUBCHEM_CACTVS_COMPLEXITY>
195

> <PUBCHEM_CACTVS_HBOND_ACCEPTOR>
2

> <PUBCHEM_CACTVS_HBOND_DONOR>
2

> <PUBCHEM_CACTVS_ROTATABLE_BOND>
0

> <PUBCHEM_CACTVS_SUBSKEYS>
AAADcYBjMAAAAAAAAAAAAAAAAAAAAAAAAAAgAAAAAAAAAAAAAAAAHgAQAAAACAiBgAADAALAAACIACVSUACAAAAAAgAACAAAAECAAAAAAQAAAAAIFSIAAUAAAAAAAAAAAAAAAAAAAAAAAAAAAAAAAAAAAA==

> <PUBCHEM_IUPAC_OPENEYE_NAME>
6-methyl-1H-pyrimidine-2,4-dione

> <PUBCHEM_IUPAC_CAS_NAME>
6-methyl-1H-pyrimidine-2,4-dione

> <PUBCHEM_IUPAC_NAME>
6-methyl-1H-pyrimidine-2,4-dione

> <PUBCHEM_IUPAC_SYSTEMATIC_NAME>
6-methyl-1H-pyrimidine-2,4-dione

> <PUBCHEM_IUPAC_TRADITIONAL_NAME>
6-methyluracil

> <PUBCHEM_IUPAC_INCHI>
InChI=1S/C5H6N2O2/c1-3-2-4(8)7-5(9)6-3/h2H,1H3,(H2,6,7,8,9)

> <PUBCHEM_IUPAC_INCHIKEY>
SHVCSCWHWMSGTE-UHFFFAOYSA-N

> <PUBCHEM_XLOGP3>
-0.8

> <PUBCHEM_EXACT_MASS>
126.042927

> <PUBCHEM_MOLECULAR_FORMULA>
C5H6N2O2

> <PUBCHEM_MOLECULAR_WEIGHT>
126.11334

> <PUBCHEM_OPENEYE_CAN_SMILES>
CC1=CC(=O)NC(=O)N1

> <PUBCHEM_OPENEYE_ISO_SMILES>
CC1=CC(=O)NC(=O)N1

> <PUBCHEM_CACTVS_TPSA>
58.2

> <PUBCHEM_MONOISOTOPIC_WEIGHT>
126.042927

> <PUBCHEM_TOTAL_CHARGE>
0

> <PUBCHEM_HEAVY_ATOM_COUNT>
9

> <PUBCHEM_ATOM_DEF_STEREO_COUNT>
0

> <PUBCHEM_ATOM_UDEF_STEREO_COUNT>
0

> <PUBCHEM_BOND_DEF_STEREO_COUNT>
0

> <PUBCHEM_BOND_UDEF_STEREO_COUNT>
0

> <PUBCHEM_ISOTOPIC_ATOM_COUNT>
0

> <PUBCHEM_COMPONENT_COUNT>
1

> <PUBCHEM_CACTVS_TAUTO_COUNT>
17

> <PUBCHEM_COORDINATE_TYPE>
1
5
255

> <PUBCHEM_BONDANNOTATIONS>
3  5  8
3  7  8
4  7  8
4  8  8
5  6  8
6  8  8

$$$$

