10314
  -OEChem-06261204273D

 27 27  0     1  0  0  0  0  0999 V2000
    1.8017    1.5821   -0.1942 O   0  0  0  0  0  0  0  0  0  0  0  0
   -0.6020   -1.1765    0.2117 N   0  0  0  0  0  0  0  0  0  0  0  0
   -0.1023    0.1253   -0.2483 C   0  0  1  0  0  0  0  0  0  0  0  0
   -1.0061    1.2620    0.2487 C   0  0  0  0  0  0  0  0  0  0  0  0
   -2.4553    1.0428   -0.1772 C   0  0  0  0  0  0  0  0  0  0  0  0
    1.3267    0.3180    0.2557 C   0  0  1  0  0  0  0  0  0  0  0  0
   -2.9298   -0.3471    0.2330 C   0  0  0  0  0  0  0  0  0  0  0  0
   -1.9662   -1.4265   -0.2544 C   0  0  0  0  0  0  0  0  0  0  0  0
    2.2471   -0.7837   -0.2687 C   0  0  0  0  0  0  0  0  0  0  0  0
    3.6862   -0.5964    0.1938 C   0  0  0  0  0  0  0  0  0  0  0  0
   -0.0947    0.1476   -1.3469 H   0  0  0  0  0  0  0  0  0  0  0  0
   -0.6671    2.2270   -0.1456 H   0  0  0  0  0  0  0  0  0  0  0  0
   -0.9595    1.3319    1.3435 H   0  0  0  0  0  0  0  0  0  0  0  0
    1.3429    0.3288    1.3533 H   0  0  0  0  0  0  0  0  0  0  0  0
   -2.5369    1.1510   -1.2658 H   0  0  0  0  0  0  0  0  0  0  0  0
   -3.0988    1.8073    0.2717 H   0  0  0  0  0  0  0  0  0  0  0  0
   -3.0156   -0.3958    1.3260 H   0  0  0  0  0  0  0  0  0  0  0  0
   -3.9301   -0.5316   -0.1744 H   0  0  0  0  0  0  0  0  0  0  0  0
   -0.5889   -1.2004    1.2317 H   0  0  0  0  0  0  0  0  0  0  0  0
   -2.2944   -2.4037    0.1162 H   0  0  0  0  0  0  0  0  0  0  0  0
   -1.9804   -1.4852   -1.3494 H   0  0  0  0  0  0  0  0  0  0  0  0
    1.9088   -1.7704    0.0660 H   0  0  0  0  0  0  0  0  0  0  0  0
    2.2428   -0.7870   -1.3657 H   0  0  0  0  0  0  0  0  0  0  0  0
    3.7442   -0.5346    1.2850 H   0  0  0  0  0  0  0  0  0  0  0  0
    4.1325    0.3081   -0.2306 H   0  0  0  0  0  0  0  0  0  0  0  0
    4.2963   -1.4461   -0.1295 H   0  0  0  0  0  0  0  0  0  0  0  0
    2.5896    1.8078    0.3281 H   0  0  0  0  0  0  0  0  0  0  0  0
  1  6  1  0  0  0  0
  1 27  1  0  0  0  0
  2  3  1  0  0  0  0
  2  8  1  0  0  0  0
  2 19  1  0  0  0  0
  3  4  1  0  0  0  0
  3  6  1  0  0  0  0
  3 11  1  0  0  0  0
  4  5  1  0  0  0  0
  4 12  1  0  0  0  0
  4 13  1  0  0  0  0
  5  7  1  0  0  0  0
  5 15  1  0  0  0  0
  5 16  1  0  0  0  0
  6  9  1  0  0  0  0
  6 14  1  0  0  0  0
  7  8  1  0  0  0  0
  7 17  1  0  0  0  0
  7 18  1  0  0  0  0
  8 20  1  0  0  0  0
  8 21  1  0  0  0  0
  9 10  1  0  0  0  0
  9 22  1  0  0  0  0
  9 23  1  0  0  0  0
 10 24  1  0  0  0  0
 10 25  1  0  0  0  0
 10 26  1  0  0  0  0
M  END
> <PUBCHEM_COMPOUND_CID>
10314

> <PUBCHEM_CONFORMER_RMSD>
0.6

> <PUBCHEM_CONFORMER_DIVERSEORDER>
4
17
25
18
7
11
21
12
19
24
22
10
5
16
20
1
6
9
13
3
8
2
23
14
15

> <PUBCHEM_MMFF94_PARTIAL_CHARGES>
7
1 -0.68
19 0.36
2 -0.9
27 0.4
3 0.27
6 0.28
8 0.27

> <PUBCHEM_EFFECTIVE_ROTOR_COUNT>
3.2

> <PUBCHEM_PHARMACOPHORE_FEATURES>
6
1 1 acceptor
1 1 donor
1 10 hydrophobe
1 2 cation
1 2 donor
6 2 3 4 5 7 8 rings

> <PUBCHEM_HEAVY_ATOM_COUNT>
10

> <PUBCHEM_ATOM_DEF_STEREO_COUNT>
0

> <PUBCHEM_ATOM_UDEF_STEREO_COUNT>
2

> <PUBCHEM_BOND_DEF_STEREO_COUNT>
0

> <PUBCHEM_BOND_UDEF_STEREO_COUNT>
0

> <PUBCHEM_ISOTOPIC_ATOM_COUNT>
0

> <PUBCHEM_COMPONENT_COUNT>
1

> <PUBCHEM_CACTVS_TAUTO_COUNT>
1

> <PUBCHEM_CONFORMER_ID>
0000284A00000004

> <PUBCHEM_MMFF94_ENERGY>
2.2833

> <PUBCHEM_FEATURE_SELFOVERLAP>
30.446

> <PUBCHEM_SHAPE_FINGERPRINT>
11062470 55 14851609902949969907
12932764 1 17677611964712577524
14325111 11 18411136948032173728
15775835 57 18059292187761612225
16945 1 18335978765637340071
19973954 147 18410572847032882813
20201158 50 18261111902189742678
20871998 184 18114179701062701711
21501502 16 18336544898077229116
23235685 24 18263369242584943209
23402539 116 18041009474730565005
23552423 10 18271807865331327670
2748010 2 18338519629693022261
29004967 10 16298382465727526507
3248919 1 17385997373406669901
369184 2 18260550000392678449
5084963 1 18334858328918465473
7364860 26 18263081016252348936

> <PUBCHEM_SHAPE_MULTIPOLES>
194.94
5.09
1.52
0.65
2.59
0.12
0
-0.8
0.17
-0.37
-0.06
-0.01
-0.01
-0.03

> <PUBCHEM_SHAPE_SELFOVERLAP>
371.912

> <PUBCHEM_SHAPE_VOLUME>
119.5

> <PUBCHEM_COORDINATE_TYPE>
2
5
10

$$$$

