3905
  -OEChem-06251223452D

 36 36  0     1  0  0  0  0  0999 V2000
    4.6431    0.7896    0.0000 O   0  0  0  0  0  0  0  0  0  0  0  0
    5.6724   -1.6478    0.0000 O   0  0  0  0  0  0  0  0  0  0  0  0
    6.9595   -0.4888    0.0000 O   0  0  0  0  0  0  0  0  0  0  0  0
    5.8475    1.6937    0.0000 N   0  0  0  0  0  0  0  0  0  0  0  0
    2.8090   -0.9015    0.0000 N   0  0  0  0  0  0  0  0  0  0  0  0
    2.3090    0.6373    0.0000 N   0  0  0  0  0  0  0  0  0  0  0  0
    6.0554    0.7155    0.0000 C   0  0  3  0  0  0  0  0  0  0  0  0
    5.3122    0.0464    0.0000 C   0  0  3  0  0  0  0  0  0  0  0  0
    7.0064    0.4065    0.0000 C   0  0  0  0  0  0  0  0  0  0  0  0
    7.7496    1.0756    0.0000 C   0  0  0  0  0  0  0  0  0  0  0  0
    4.5691   -0.6227    0.0000 C   0  0  0  0  0  0  0  0  0  0  0  0
    5.9814   -0.6967    0.0000 C   0  0  0  0  0  0  0  0  0  0  0  0
    8.7006    0.7666    0.0000 C   0  0  0  0  0  0  0  0  0  0  0  0
    7.5417    2.0538    0.0000 C   0  0  0  0  0  0  0  0  0  0  0  0
    3.6180   -0.3137    0.0000 C   0  0  0  0  0  0  0  0  0  0  0  0
    3.3090    0.6373    0.0000 C   0  0  0  0  0  0  0  0  0  0  0  0
    2.0000   -0.3137    0.0000 C   0  0  0  0  0  0  0  0  0  0  0  0
    6.6870    1.2843    0.0000 H   0  0  0  0  0  0  0  0  0  0  0  0
    6.7154   -0.1409    0.0000 H   0  0  0  0  0  0  0  0  0  0  0  0
    7.4950    0.0248    0.0000 H   0  0  0  0  0  0  0  0  0  0  0  0
    7.1599    1.2672    0.0000 H   0  0  0  0  0  0  0  0  0  0  0  0
    4.2780   -1.1702    0.0000 H   0  0  0  0  0  0  0  0  0  0  0  0
    5.0577   -1.0044    0.0000 H   0  0  0  0  0  0  0  0  0  0  0  0
    6.3082    2.1086    0.0000 H   0  0  0  0  0  0  0  0  0  0  0  0
    5.2578    1.8853    0.0000 H   0  0  0  0  0  0  0  0  0  0  0  0
    8.5090    0.1770    0.0000 H   0  0  0  0  0  0  0  0  0  0  0  0
    9.2903    0.5750    0.0000 H   0  0  0  0  0  0  0  0  0  0  0  0
    8.8922    1.3563    0.0000 H   0  0  0  0  0  0  0  0  0  0  0  0
    8.1481    2.1827    0.0000 H   0  0  0  0  0  0  0  0  0  0  0  0
    7.4128    2.6602    0.0000 H   0  0  0  0  0  0  0  0  0  0  0  0
    6.9352    1.9249    0.0000 H   0  0  0  0  0  0  0  0  0  0  0  0
    4.8347    1.3792    0.0000 H   0  0  0  0  0  0  0  0  0  0  0  0
    2.8090   -1.5215    0.0000 H   0  0  0  0  0  0  0  0  0  0  0  0
    3.6734    1.1389    0.0000 H   0  0  0  0  0  0  0  0  0  0  0  0
    6.0872   -2.1086    0.0000 H   0  0  0  0  0  0  0  0  0  0  0  0
    1.4103   -0.5053    0.0000 H   0  0  0  0  0  0  0  0  0  0  0  0
  1  8  1  0  0  0  0
  1 32  1  0  0  0  0
  2 12  1  0  0  0  0
  2 35  1  0  0  0  0
  3 12  2  0  0  0  0
  4  7  1  0  0  0  0
  4 24  1  0  0  0  0
  4 25  1  0  0  0  0
  5 15  1  0  0  0  0
  5 17  1  0  0  0  0
  5 33  1  0  0  0  0
  6 16  1  0  0  0  0
  6 17  2  0  0  0  0
  7  8  1  0  0  0  0
  7  9  1  0  0  0  0
  7 18  1  0  0  0  0
  8 11  1  0  0  0  0
  8 12  1  0  0  0  0
  9 10  1  0  0  0  0
  9 19  1  0  0  0  0
  9 20  1  0  0  0  0
 10 13  1  0  0  0  0
 10 14  1  0  0  0  0
 10 21  1  0  0  0  0
 11 15  1  0  0  0  0
 11 22  1  0  0  0  0
 11 23  1  0  0  0  0
 13 26  1  0  0  0  0
 13 27  1  0  0  0  0
 13 28  1  0  0  0  0
 14 29  1  0  0  0  0
 14 30  1  0  0  0  0
 14 31  1  0  0  0  0
 15 16  2  0  0  0  0
 16 34  1  0  0  0  0
 17 36  1  0  0  0  0
M  END
> <PUBCHEM_COMPOUND_CID>
3905

> <PUBCHEM_COMPOUND_CANONICALIZED>
1

> <PUBCHEM_CACTVS_COMPLEXITY>
273

> <PUBCHEM_CACTVS_HBOND_ACCEPTOR>
5

> <PUBCHEM_CACTVS_HBOND_DONOR>
4

> <PUBCHEM_CACTVS_ROTATABLE_BOND>
6

> <PUBCHEM_CACTVS_SUBSKEYS>
AAADceBzMAAAAAAAAAAAAAAAAAAAAWAAAAAAAAAAAAAAAAABgAAAHgAQCAAADWzBlgQvmBbJkgCoART3bAIAgC2xEqABUYF4cAiDaBpAmQCUQAAO0ANBQCG82dIOAAAAAAAAAAAAAAAAAAAAAAAAAAAAAA==

> <PUBCHEM_IUPAC_OPENEYE_NAME>
3-amino-2-hydroxy-2-(1H-imidazol-5-ylmethyl)-5-methyl-hexanoic acid

> <PUBCHEM_IUPAC_CAS_NAME>
3-amino-2-hydroxy-2-(1H-imidazol-5-ylmethyl)-5-methylhexanoic acid

> <PUBCHEM_IUPAC_NAME>
3-amino-2-hydroxy-2-(1H-imidazol-5-ylmethyl)-5-methylhexanoic acid

> <PUBCHEM_IUPAC_SYSTEMATIC_NAME>
3-azanyl-2-(1H-imidazol-5-ylmethyl)-5-methyl-2-oxidanyl-hexanoic acid

> <PUBCHEM_IUPAC_TRADITIONAL_NAME>
3-amino-2-hydroxy-2-(1H-imidazol-5-ylmethyl)-5-methyl-hexanoic acid

> <PUBCHEM_IUPAC_INCHI>
InChI=1S/C11H19N3O3/c1-7(2)3-9(12)11(17,10(15)16)4-8-5-13-6-14-8/h5-7,9,17H,3-4,12H2,1-2H3,(H,13,14)(H,15,16)

> <PUBCHEM_IUPAC_INCHIKEY>
WZFDNGAENBEYMA-UHFFFAOYSA-N

> <PUBCHEM_XLOGP3_AA>
-2.3

> <PUBCHEM_EXACT_MASS>
241.142641

> <PUBCHEM_MOLECULAR_FORMULA>
C11H19N3O3

> <PUBCHEM_MOLECULAR_WEIGHT>
241.28686

> <PUBCHEM_OPENEYE_CAN_SMILES>
CC(C)CC(C(CC1=CN=CN1)(C(=O)O)O)N

> <PUBCHEM_OPENEYE_ISO_SMILES>
CC(C)CC(C(CC1=CN=CN1)(C(=O)O)O)N

> <PUBCHEM_CACTVS_TPSA>
112

> <PUBCHEM_MONOISOTOPIC_WEIGHT>
241.142641

> <PUBCHEM_TOTAL_CHARGE>
0

> <PUBCHEM_HEAVY_ATOM_COUNT>
17

> <PUBCHEM_ATOM_DEF_STEREO_COUNT>
0

> <PUBCHEM_ATOM_UDEF_STEREO_COUNT>
2

> <PUBCHEM_BOND_DEF_STEREO_COUNT>
0

> <PUBCHEM_BOND_UDEF_STEREO_COUNT>
0

> <PUBCHEM_ISOTOPIC_ATOM_COUNT>
0

> <PUBCHEM_COMPONENT_COUNT>
1

> <PUBCHEM_CACTVS_TAUTO_COUNT>
2

> <PUBCHEM_COORDINATE_TYPE>
1
5
255

> <PUBCHEM_BONDANNOTATIONS>
15  16  8
5  15  8
5  17  8
6  16  8
6  17  8
7  18  3
8  12  3

$$$$

