47205582
  -OEChem-06241222593D

 32 33  0     1  0  0  0  0  0999 V2000
    4.3821    2.6369   -0.8061 I   0  0  0  0  0  0  0  0  0  0  0  0
   -0.8297   -2.4106    0.2276 O   0  0  0  0  0  0  0  0  0  0  0  0
   -3.0140    0.2567   -0.1630 N   0  0  0  0  0  0  0  0  0  0  0  0
   -0.1596   -0.3041   -0.5749 N   0  0  0  0  0  0  0  0  0  0  0  0
   -3.7115    1.6282    1.4383 N   0  0  0  0  0  0  0  0  0  0  0  0
   -2.4808   -0.9996   -0.8281 C   0  0  1  0  0  0  0  0  0  0  0  0
   -1.0741   -1.3402   -0.3218 C   0  0  0  0  0  0  0  0  0  0  0  0
   -3.4476   -2.1703   -0.6325 C   0  0  0  0  0  0  0  0  0  0  0  0
    1.1989   -0.2555   -0.2608 C   0  0  0  0  0  0  0  0  0  0  0  0
   -3.3466    1.4248   -0.7894 C   0  0  0  0  0  0  0  0  0  0  0  0
   -3.2497    0.4264    1.1729 C   0  0  0  0  0  0  0  0  0  0  0  0
    1.9522    0.8703   -0.5937 C   0  0  0  0  0  0  0  0  0  0  0  0
    1.8034   -1.3325    0.3877 C   0  0  0  0  0  0  0  0  0  0  0  0
    3.9145   -0.1579    0.3699 C   0  0  0  0  0  0  0  0  0  0  0  0
   -3.7742    2.2557    0.2194 C   0  0  0  0  0  0  0  0  0  0  0  0
    3.3099    0.9191   -0.2783 C   0  0  0  0  0  0  0  0  0  0  0  0
    3.1612   -1.2836    0.7029 C   0  0  0  0  0  0  0  0  0  0  0  0
    5.3658   -0.1636    0.7300 C   0  0  0  0  0  0  0  0  0  0  0  0
   -2.4154   -0.7544   -1.8957 H   0  0  0  0  0  0  0  0  0  0  0  0
   -3.5396   -2.4490    0.4231 H   0  0  0  0  0  0  0  0  0  0  0  0
   -4.4478   -1.9136   -0.9978 H   0  0  0  0  0  0  0  0  0  0  0  0
   -3.1016   -3.0535   -1.1802 H   0  0  0  0  0  0  0  0  0  0  0  0
   -0.5198    0.5181   -1.0544 H   0  0  0  0  0  0  0  0  0  0  0  0
   -3.2540    1.5609   -1.8577 H   0  0  0  0  0  0  0  0  0  0  0  0
   -3.0663   -0.3521    1.9008 H   0  0  0  0  0  0  0  0  0  0  0  0
    1.4710    1.7053   -1.0990 H   0  0  0  0  0  0  0  0  0  0  0  0
    1.2884   -2.2371    0.6783 H   0  0  0  0  0  0  0  0  0  0  0  0
   -4.1239    3.2738    0.1298 H   0  0  0  0  0  0  0  0  0  0  0  0
    3.6148   -2.1327    1.2079 H   0  0  0  0  0  0  0  0  0  0  0  0
    5.9903   -0.0846   -0.1658 H   0  0  0  0  0  0  0  0  0  0  0  0
    5.5994    0.6524    1.4216 H   0  0  0  0  0  0  0  0  0  0  0  0
    5.6553   -1.0934    1.2332 H   0  0  0  0  0  0  0  0  0  0  0  0
  1 16  1  0  0  0  0
  2  7  2  0  0  0  0
  3  6  1  0  0  0  0
  3 10  1  0  0  0  0
  3 11  1  0  0  0  0
  4  7  1  0  0  0  0
  4  9  1  0  0  0  0
  4 23  1  0  0  0  0
  5 11  2  0  0  0  0
  5 15  1  0  0  0  0
  6  7  1  0  0  0  0
  6  8  1  0  0  0  0
  6 19  1  0  0  0  0
  8 20  1  0  0  0  0
  8 21  1  0  0  0  0
  8 22  1  0  0  0  0
  9 12  2  0  0  0  0
  9 13  1  0  0  0  0
 10 15  2  0  0  0  0
 10 24  1  0  0  0  0
 11 25  1  0  0  0  0
 12 16  1  0  0  0  0
 12 26  1  0  0  0  0
 13 17  2  0  0  0  0
 13 27  1  0  0  0  0
 14 16  2  0  0  0  0
 14 17  1  0  0  0  0
 14 18  1  0  0  0  0
 15 28  1  0  0  0  0
 17 29  1  0  0  0  0
 18 30  1  0  0  0  0
 18 31  1  0  0  0  0
 18 32  1  0  0  0  0
M  END
> <PUBCHEM_COMPOUND_CID>
47205582

> <PUBCHEM_CONFORMER_RMSD>
0.6

> <PUBCHEM_CONFORMER_DIVERSEORDER>
2
94
115
51
5
120
21
75
28
101
39
61
84
73
29
7
49
23
63
118
35
99
83
108
45
74
93
3
26
16
11
104
68
95
31
38
34
6
20
82
76
102
96
92
106
30
119
36
37
22
18
100
109
50
44
71
25
15
90
69
66
4
122
72
48
1
81
113
14
67
53
70
8
116
77
111
13
79
58
62
85
110
19
47
9
107
114
112
89
24
52
59
78
10
57
33
123
64
80
88
56
86
55
41
97
27
98
43
65
12
105
91
40
103
54
60
117
87
32
42
46
121
17

> <PUBCHEM_MMFF94_PARTIAL_CHARGES>
24
1 -0.08
10 -0.3
11 0.04
12 -0.15
13 -0.15
14 -0.14
15 0.08
16 0.08
17 -0.15
18 0.14
2 -0.57
23 0.37
24 0.15
25 0.15
26 0.15
27 0.15
28 0.15
29 0.15
3 0.05
4 -0.55
5 -0.57
6 0.32
7 0.57
9 0.12

> <PUBCHEM_EFFECTIVE_ROTOR_COUNT>
4

> <PUBCHEM_PHARMACOPHORE_FEATURES>
6
1 1 hydrophobe
1 2 acceptor
1 4 donor
3 3 5 11 cation
5 3 5 10 11 15 rings
6 9 12 13 14 16 17 rings

> <PUBCHEM_HEAVY_ATOM_COUNT>
18

> <PUBCHEM_ATOM_DEF_STEREO_COUNT>
0

> <PUBCHEM_ATOM_UDEF_STEREO_COUNT>
1

> <PUBCHEM_BOND_DEF_STEREO_COUNT>
0

> <PUBCHEM_BOND_UDEF_STEREO_COUNT>
0

> <PUBCHEM_ISOTOPIC_ATOM_COUNT>
0

> <PUBCHEM_COMPONENT_COUNT>
1

> <PUBCHEM_CACTVS_TAUTO_COUNT>
2

> <PUBCHEM_CONFORMER_ID>
02D04CCE00000002

> <PUBCHEM_MMFF94_ENERGY>
43.0257

> <PUBCHEM_FEATURE_SELFOVERLAP>
30.446

> <PUBCHEM_SHAPE_MULTIPOLES>
361.55
10.65
2.71
1.06
4.14
0.77
0.15
4.5
1.18
-0.58
-0.19
-0.48
0.22
-1.98

> <PUBCHEM_SHAPE_SELFOVERLAP>
740.101

> <PUBCHEM_SHAPE_VOLUME>
214.4

> <PUBCHEM_COORDINATE_TYPE>
2
5
10

$$$$

