14437
  -OEChem-06241222432D

 60 63  0     1  0  0  0  0  0999 V2000
    4.7950    0.2647    0.0000 O   0  0  0  0  0  0  0  0  0  0  0  0
    7.9821    1.7643    0.0000 O   0  0  0  0  0  0  0  0  0  0  0  0
    9.9391    2.1767    0.0000 O   0  0  0  0  0  0  0  0  0  0  0  0
    2.0000   -3.2876    0.0000 O   0  0  0  0  0  0  0  0  0  0  0  0
   11.5855    1.6386    0.0000 O   0  0  0  0  0  0  0  0  0  0  0  0
    7.3931   -0.2353    0.0000 C   0  0  3  0  0  0  0  0  0  0  0  0
    7.3931   -1.2353    0.0000 C   0  0  3  0  0  0  0  0  0  0  0  0
    6.5271   -1.7353    0.0000 C   0  0  3  0  0  0  0  0  0  0  0  0
    5.6610   -1.2353    0.0000 C   0  0  3  0  0  0  0  0  0  0  0  0
    4.7510   -1.7421    0.0000 C   0  0  3  0  0  0  0  0  0  0  0  0
    6.5271    0.2647    0.0000 C   0  0  0  0  0  0  0  0  0  0  0  0
    8.3393    0.0695    0.0000 C   0  0  3  0  0  0  0  0  0  0  0  0
    5.6610   -0.2353    0.0000 C   0  0  3  0  0  0  0  0  0  0  0  0
    8.3393   -1.5400    0.0000 C   0  0  0  0  0  0  0  0  0  0  0  0
    6.5431   -2.7768    0.0000 C   0  0  0  0  0  0  0  0  0  0  0  0
    8.9229   -0.7353    0.0000 C   0  0  0  0  0  0  0  0  0  0  0  0
    7.3931    0.7647    0.0000 C   0  0  0  0  0  0  0  0  0  0  0  0
    4.7430   -2.7837    0.0000 C   0  0  0  0  0  0  0  0  0  0  0  0
    5.6451   -3.3045    0.0000 C   0  0  0  0  0  0  0  0  0  0  0  0
    3.8242   -1.1780    0.0000 C   0  0  0  0  0  0  0  0  0  0  0  0
    4.7587   -0.7422    0.0000 C   0  0  0  0  0  0  0  0  0  0  0  0
    8.6500    1.0200    0.0000 C   0  0  0  0  0  0  0  0  0  0  0  0
    2.8763   -1.7060    0.0000 C   0  0  0  0  0  0  0  0  0  0  0  0
    3.8076   -3.3334    0.0000 C   0  0  0  0  0  0  0  0  0  0  0  0
    2.8680   -2.7910    0.0000 C   0  0  0  0  0  0  0  0  0  0  0  0
    9.6285    1.2262    0.0000 C   0  0  0  0  0  0  0  0  0  0  0  0
   10.9176    2.3829    0.0000 C   0  0  0  0  0  0  0  0  0  0  0  0
   11.2283    3.3334    0.0000 C   0  0  0  0  0  0  0  0  0  0  0  0
    7.4587   -1.8518    0.0000 H   0  0  0  0  0  0  0  0  0  0  0  0
    7.0664   -2.0411    0.0000 H   0  0  0  0  0  0  0  0  0  0  0  0
    6.1980   -0.9253    0.0000 H   0  0  0  0  0  0  0  0  0  0  0  0
    6.9256    0.7397    0.0000 H   0  0  0  0  0  0  0  0  0  0  0  0
    6.1285    0.7397    0.0000 H   0  0  0  0  0  0  0  0  0  0  0  0
    7.9018    0.5088    0.0000 H   0  0  0  0  0  0  0  0  0  0  0  0
    5.6610    0.3847    0.0000 H   0  0  0  0  0  0  0  0  0  0  0  0
    8.0883   -2.1069    0.0000 H   0  0  0  0  0  0  0  0  0  0  0  0
    8.8767   -1.8492    0.0000 H   0  0  0  0  0  0  0  0  0  0  0  0
    6.7612   -3.3572    0.0000 H   0  0  0  0  0  0  0  0  0  0  0  0
    7.1523   -2.6613    0.0000 H   0  0  0  0  0  0  0  0  0  0  0  0
    9.3838   -1.1500    0.0000 H   0  0  0  0  0  0  0  0  0  0  0  0
    9.3838   -0.3206    0.0000 H   0  0  0  0  0  0  0  0  0  0  0  0
    8.0131    0.7647    0.0000 H   0  0  0  0  0  0  0  0  0  0  0  0
    7.3931    1.3847    0.0000 H   0  0  0  0  0  0  0  0  0  0  0  0
    6.7731    0.7647    0.0000 H   0  0  0  0  0  0  0  0  0  0  0  0
    5.2478   -3.7805    0.0000 H   0  0  0  0  0  0  0  0  0  0  0  0
    6.0460   -3.7774    0.0000 H   0  0  0  0  0  0  0  0  0  0  0  0
    4.2324   -0.7114    0.0000 H   0  0  0  0  0  0  0  0  0  0  0  0
    3.4343   -0.6960    0.0000 H   0  0  0  0  0  0  0  0  0  0  0  0
    5.3787   -0.7469    0.0000 H   0  0  0  0  0  0  0  0  0  0  0  0
    4.7635   -0.1222    0.0000 H   0  0  0  0  0  0  0  0  0  0  0  0
    4.1388   -0.7374    0.0000 H   0  0  0  0  0  0  0  0  0  0  0  0
    2.6718   -1.1207    0.0000 H   0  0  0  0  0  0  0  0  0  0  0  0
    2.2647   -1.8074    0.0000 H   0  0  0  0  0  0  0  0  0  0  0  0
    4.7950    0.8847    0.0000 H   0  0  0  0  0  0  0  0  0  0  0  0
    3.8100   -3.9534    0.0000 H   0  0  0  0  0  0  0  0  0  0  0  0
    9.6490    0.6065    0.0000 H   0  0  0  0  0  0  0  0  0  0  0  0
   10.2423    1.1388    0.0000 H   0  0  0  0  0  0  0  0  0  0  0  0
   11.8176    3.1408    0.0000 H   0  0  0  0  0  0  0  0  0  0  0  0
   11.4209    3.9228    0.0000 H   0  0  0  0  0  0  0  0  0  0  0  0
   10.6390    3.5261    0.0000 H   0  0  0  0  0  0  0  0  0  0  0  0
  1 13  1  0  0  0  0
  1 54  1  0  0  0  0
  2 22  2  0  0  0  0
  3 26  1  0  0  0  0
  3 27  1  0  0  0  0
  4 25  2  0  0  0  0
  5 27  2  0  0  0  0
  6  7  1  0  0  0  0
  6 11  1  0  0  0  0
  6 12  1  0  0  0  0
  6 17  1  0  0  0  0
  7  8  1  0  0  0  0
  7 14  1  0  0  0  0
  7 29  1  0  0  0  0
  8  9  1  0  0  0  0
  8 15  1  0  0  0  0
  8 30  1  0  0  0  0
  9 10  1  0  0  0  0
  9 13  1  0  0  0  0
  9 31  1  0  0  0  0
 10 18  1  0  0  0  0
 10 20  1  0  0  0  0
 10 21  1  0  0  0  0
 11 13  1  0  0  0  0
 11 32  1  0  0  0  0
 11 33  1  0  0  0  0
 12 16  1  0  0  0  0
 12 22  1  0  0  0  0
 12 34  1  0  0  0  0
 13 35  1  0  0  0  0
 14 16  1  0  0  0  0
 14 36  1  0  0  0  0
 14 37  1  0  0  0  0
 15 19  1  0  0  0  0
 15 38  1  0  0  0  0
 15 39  1  0  0  0  0
 16 40  1  0  0  0  0
 16 41  1  0  0  0  0
 17 42  1  0  0  0  0
 17 43  1  0  0  0  0
 17 44  1  0  0  0  0
 18 19  1  0  0  0  0
 18 24  2  0  0  0  0
 19 45  1  0  0  0  0
 19 46  1  0  0  0  0
 20 23  1  0  0  0  0
 20 47  1  0  0  0  0
 20 48  1  0  0  0  0
 21 49  1  0  0  0  0
 21 50  1  0  0  0  0
 21 51  1  0  0  0  0
 22 26  1  0  0  0  0
 23 25  1  0  0  0  0
 23 52  1  0  0  0  0
 23 53  1  0  0  0  0
 24 25  1  0  0  0  0
 24 55  1  0  0  0  0
 26 56  1  0  0  0  0
 26 57  1  0  0  0  0
 27 28  1  0  0  0  0
 28 58  1  0  0  0  0
 28 59  1  0  0  0  0
 28 60  1  0  0  0  0
M  END
> <PUBCHEM_COMPOUND_CID>
14437

> <PUBCHEM_COMPOUND_CANONICALIZED>
1

> <PUBCHEM_CACTVS_COMPLEXITY>
739

> <PUBCHEM_CACTVS_HBOND_ACCEPTOR>
5

> <PUBCHEM_CACTVS_HBOND_DONOR>
1

> <PUBCHEM_CACTVS_ROTATABLE_BOND>
4

> <PUBCHEM_CACTVS_SUBSKEYS>
AAADcfB4OAAAAAAAAAAAAAAAAAAAAYAAAAAwYIAAAAAAAGDAAAAAGgAACAAADxSggAICCAAABgCIAqDSCAIAAAAgAAAACAFAAEgAEBIAAQQCQAAEgAAIAQOIzPDPgAAAAAAAAADAAAYAADAAAQAACAAAAA==

> <PUBCHEM_IUPAC_OPENEYE_NAME>
[2-(11-hydroxy-10,13-dimethyl-3-oxo-1,2,6,7,8,9,11,12,14,15,16,17-dodecahydrocyclopenta[a]phenanthren-17-yl)-2-oxo-ethyl] acetate

> <PUBCHEM_IUPAC_CAS_NAME>
acetic acid [2-(11-hydroxy-10,13-dimethyl-3-oxo-1,2,6,7,8,9,11,12,14,15,16,17-dodecahydrocyclopenta[a]phenanthren-17-yl)-2-oxoethyl] ester

> <PUBCHEM_IUPAC_NAME>
[2-(11-hydroxy-10,13-dimethyl-3-oxo-1,2,6,7,8,9,11,12,14,15,16,17-dodecahydrocyclopenta[a]phenanthren-17-yl)-2-oxoethyl] acetate

> <PUBCHEM_IUPAC_SYSTEMATIC_NAME>
[2-(10,13-dimethyl-11-oxidanyl-3-oxidanylidene-1,2,6,7,8,9,11,12,14,15,16,17-dodecahydrocyclopenta[a]phenanthren-17-yl)-2-oxidanylidene-ethyl] ethanoate

> <PUBCHEM_IUPAC_TRADITIONAL_NAME>
acetic acid [2-(11-hydroxy-3-keto-10,13-dimethyl-1,2,6,7,8,9,11,12,14,15,16,17-dodecahydrocyclopenta[a]phenanthren-17-yl)-2-keto-ethyl] ester

> <PUBCHEM_IUPAC_INCHI>
InChI=1S/C23H32O5/c1-13(24)28-12-20(27)18-7-6-17-16-5-4-14-10-15(25)8-9-22(14,2)21(16)19(26)11-23(17,18)3/h10,16-19,21,26H,4-9,11-12H2,1-3H3

> <PUBCHEM_IUPAC_INCHIKEY>
WKQCPUMQBMFPLC-UHFFFAOYSA-N

> <PUBCHEM_XLOGP3>
2.5

> <PUBCHEM_EXACT_MASS>
388.224974

> <PUBCHEM_MOLECULAR_FORMULA>
C23H32O5

> <PUBCHEM_MOLECULAR_WEIGHT>
388.49718

> <PUBCHEM_OPENEYE_CAN_SMILES>
CC(=O)OCC(=O)C1CCC2C1(CC(C3C2CCC4=CC(=O)CCC34C)O)C

> <PUBCHEM_OPENEYE_ISO_SMILES>
CC(=O)OCC(=O)C1CCC2C1(CC(C3C2CCC4=CC(=O)CCC34C)O)C

> <PUBCHEM_CACTVS_TPSA>
80.7

> <PUBCHEM_MONOISOTOPIC_WEIGHT>
388.224974

> <PUBCHEM_TOTAL_CHARGE>
0

> <PUBCHEM_HEAVY_ATOM_COUNT>
28

> <PUBCHEM_ATOM_DEF_STEREO_COUNT>
0

> <PUBCHEM_ATOM_UDEF_STEREO_COUNT>
7

> <PUBCHEM_BOND_DEF_STEREO_COUNT>
0

> <PUBCHEM_BOND_UDEF_STEREO_COUNT>
0

> <PUBCHEM_ISOTOPIC_ATOM_COUNT>
0

> <PUBCHEM_COMPONENT_COUNT>
1

> <PUBCHEM_CACTVS_TAUTO_COUNT>
15

> <PUBCHEM_COORDINATE_TYPE>
1
5
255

> <PUBCHEM_BONDANNOTATIONS>
13  1  3
10  21  3
12  22  3
6  17  3
7  14  3
8  15  3
9  13  3

$$$$

