4148
  -OEChem-06251223553D

 61 63  0     0  0  0  0  0  0999 V2000
   -2.3820    2.9631   -0.0370 O   0  0  0  0  0  0  0  0  0  0  0  0
  -10.9461   -1.5004    1.2721 O   0  0  0  0  0  0  0  0  0  0  0  0
  -11.7807   -2.5856   -1.0652 O   0  0  0  0  0  0  0  0  0  0  0  0
    3.3846    0.3577   -0.0049 N   0  0  0  0  0  0  0  0  0  0  0  0
    6.1699   -0.3673   -0.0123 N   0  0  0  0  0  0  0  0  0  0  0  0
  -10.8295   -1.5574   -1.0363 N   0  0  0  0  0  0  0  0  0  0  0  0
    4.3789    1.1930   -0.6784 C   0  0  0  0  0  0  0  0  0  0  0  0
    3.8489   -0.8571    0.6646 C   0  0  0  0  0  0  0  0  0  0  0  0
    5.5765    0.3562   -1.1367 C   0  0  0  0  0  0  0  0  0  0  0  0
    5.3047   -0.7110    1.1160 C   0  0  0  0  0  0  0  0  0  0  0  0
    2.0370    0.7079   -0.0022 C   0  0  0  0  0  0  0  0  0  0  0  0
    7.5172   -0.7189   -0.0165 C   0  0  0  0  0  0  0  0  0  0  0  0
    1.0584   -0.2848    0.0487 C   0  0  0  0  0  0  0  0  0  0  0  0
    1.6654    2.0516   -0.0503 C   0  0  0  0  0  0  0  0  0  0  0  0
   -5.5702    0.0920    0.1702 C   0  0  0  0  0  0  0  0  0  0  0  0
   -4.5402    1.2185    0.0745 C   0  0  0  0  0  0  0  0  0  0  0  0
   -6.9983    0.6406    0.1475 C   0  0  0  0  0  0  0  0  0  0  0  0
   -3.1128    0.6682    0.0634 C   0  0  0  0  0  0  0  0  0  0  0  0
   -0.6260    1.3997    0.0030 C   0  0  0  0  0  0  0  0  0  0  0  0
    8.2543   -0.8257    1.1863 C   0  0  0  0  0  0  0  0  0  0  0  0
    8.2052   -0.9837   -1.2241 C   0  0  0  0  0  0  0  0  0  0  0  0
   -0.2916    0.0658    0.0513 C   0  0  0  0  0  0  0  0  0  0  0  0
    0.3153    2.4022   -0.0477 C   0  0  0  0  0  0  0  0  0  0  0  0
   -8.0285   -0.4905    0.2119 C   0  0  0  0  0  0  0  0  0  0  0  0
   -2.0707    1.7751    0.0066 C   0  0  0  0  0  0  0  0  0  0  0  0
   -9.4654    0.0260    0.1597 C   0  0  0  0  0  0  0  0  0  0  0  0
    9.6041   -1.1772    1.1819 C   0  0  0  0  0  0  0  0  0  0  0  0
    9.5551   -1.3353   -1.2283 C   0  0  0  0  0  0  0  0  0  0  0  0
   10.2544   -1.4320   -0.0254 C   0  0  0  0  0  0  0  0  0  0  0  0
  -10.4880   -1.0906    0.2076 C   0  0  0  0  0  0  0  0  0  0  0  0
    4.7152    1.9805    0.0076 H   0  0  0  0  0  0  0  0  0  0  0  0
    3.9508    1.6764   -1.5653 H   0  0  0  0  0  0  0  0  0  0  0  0
    3.2438   -1.0717    1.5541 H   0  0  0  0  0  0  0  0  0  0  0  0
    3.7554   -1.7077   -0.0220 H   0  0  0  0  0  0  0  0  0  0  0  0
    6.3060    1.0362   -1.5939 H   0  0  0  0  0  0  0  0  0  0  0  0
    5.2592   -0.3628   -1.9023 H   0  0  0  0  0  0  0  0  0  0  0  0
    5.6123   -1.6608    1.5705 H   0  0  0  0  0  0  0  0  0  0  0  0
    5.3822    0.0706    1.8820 H   0  0  0  0  0  0  0  0  0  0  0  0
    1.3145   -1.3406    0.0715 H   0  0  0  0  0  0  0  0  0  0  0  0
    2.4025    2.8494   -0.0751 H   0  0  0  0  0  0  0  0  0  0  0  0
   -5.4093   -0.4775    1.0936 H   0  0  0  0  0  0  0  0  0  0  0  0
   -5.4313   -0.6028   -0.6670 H   0  0  0  0  0  0  0  0  0  0  0  0
   -4.7150    1.8045   -0.8365 H   0  0  0  0  0  0  0  0  0  0  0  0
   -4.6669    1.9049    0.9212 H   0  0  0  0  0  0  0  0  0  0  0  0
   -7.1536    1.2237   -0.7683 H   0  0  0  0  0  0  0  0  0  0  0  0
   -7.1467    1.3213    0.9944 H   0  0  0  0  0  0  0  0  0  0  0  0
   -2.9549    0.0851    0.9776 H   0  0  0  0  0  0  0  0  0  0  0  0
   -2.9901    0.0230   -0.8137 H   0  0  0  0  0  0  0  0  0  0  0  0
    7.7830   -0.6213    2.1451 H   0  0  0  0  0  0  0  0  0  0  0  0
    7.6884   -0.9305   -2.1797 H   0  0  0  0  0  0  0  0  0  0  0  0
   -1.0172   -0.7383    0.0876 H   0  0  0  0  0  0  0  0  0  0  0  0
    0.0472    3.4536   -0.0821 H   0  0  0  0  0  0  0  0  0  0  0  0
   -7.8628   -1.1862   -0.6203 H   0  0  0  0  0  0  0  0  0  0  0  0
   -7.8843   -1.0701    1.1323 H   0  0  0  0  0  0  0  0  0  0  0  0
   -9.6593    0.6950    1.0066 H   0  0  0  0  0  0  0  0  0  0  0  0
   -9.6203    0.6180   -0.7506 H   0  0  0  0  0  0  0  0  0  0  0  0
   10.1499   -1.2499    2.1181 H   0  0  0  0  0  0  0  0  0  0  0  0
   10.0612   -1.5367   -2.1680 H   0  0  0  0  0  0  0  0  0  0  0  0
   11.3054   -1.7058   -0.0288 H   0  0  0  0  0  0  0  0  0  0  0  0
  -10.3753   -1.3240   -1.9118 H   0  0  0  0  0  0  0  0  0  0  0  0
  -12.5895   -2.0675   -1.2157 H   0  0  0  0  0  0  0  0  0  0  0  0
  1 25  2  0  0  0  0
  2 30  2  0  0  0  0
  3  6  1  0  0  0  0
  3 61  1  0  0  0  0
  4  7  1  0  0  0  0
  4  8  1  0  0  0  0
  4 11  1  0  0  0  0
  5  9  1  0  0  0  0
  5 10  1  0  0  0  0
  5 12  1  0  0  0  0
  6 30  1  0  0  0  0
  6 60  1  0  0  0  0
  7  9  1  0  0  0  0
  7 31  1  0  0  0  0
  7 32  1  0  0  0  0
  8 10  1  0  0  0  0
  8 33  1  0  0  0  0
  8 34  1  0  0  0  0
  9 35  1  0  0  0  0
  9 36  1  0  0  0  0
 10 37  1  0  0  0  0
 10 38  1  0  0  0  0
 11 13  2  0  0  0  0
 11 14  1  0  0  0  0
 12 20  2  0  0  0  0
 12 21  1  0  0  0  0
 13 22  1  0  0  0  0
 13 39  1  0  0  0  0
 14 23  2  0  0  0  0
 14 40  1  0  0  0  0
 15 16  1  0  0  0  0
 15 17  1  0  0  0  0
 15 41  1  0  0  0  0
 15 42  1  0  0  0  0
 16 18  1  0  0  0  0
 16 43  1  0  0  0  0
 16 44  1  0  0  0  0
 17 24  1  0  0  0  0
 17 45  1  0  0  0  0
 17 46  1  0  0  0  0
 18 25  1  0  0  0  0
 18 47  1  0  0  0  0
 18 48  1  0  0  0  0
 19 22  2  0  0  0  0
 19 23  1  0  0  0  0
 19 25  1  0  0  0  0
 20 27  1  0  0  0  0
 20 49  1  0  0  0  0
 21 28  2  0  0  0  0
 21 50  1  0  0  0  0
 22 51  1  0  0  0  0
 23 52  1  0  0  0  0
 24 26  1  0  0  0  0
 24 53  1  0  0  0  0
 24 54  1  0  0  0  0
 26 30  1  0  0  0  0
 26 55  1  0  0  0  0
 26 56  1  0  0  0  0
 27 29  2  0  0  0  0
 27 57  1  0  0  0  0
 28 29  1  0  0  0  0
 28 58  1  0  0  0  0
 29 59  1  0  0  0  0
M  END
> <PUBCHEM_COMPOUND_CID>
4148

> <PUBCHEM_CONFORMER_RMSD>
1.2

> <PUBCHEM_CONFORMER_DIVERSEORDER>
1
33
127
118
112
65
142
41
150
4
97
72
52
36
144
153
44
104
45
105
70
175
108
40
64
22
2
103
139
119
31
90
15
66
48
178
149
86
137
138
124
24
158
91
27
39
117
23
11
169
121
29
155
167
35
80
56
71
160
161
131
99
94
164
53
14
145
82
43
181
63
10
16
179
19
174
62
75
180
30
50
69
98
109
13
25
59
85
77
123
81
67
151
61
87
34
148
3
101
156
165
6
126
46
141
129
32
96
7
92
168
54
110
21
89
100
8
18
74
73
136
20
173
38
102
120
9
78
143
17
49
58
107
79
106
5
95
162
12
133
60
93
42
57
88
111
55
114
134
170
166
28
128
47
157
84
135
147
68
113
26
51
154
130
140
159
83
76
37
122
163
171
172
176
115
177
116
125
132
146
152

> <PUBCHEM_MMFF94_PARTIAL_CHARGES>
37
1 -0.57
10 0.37
11 0.1
12 0.1
13 -0.15
14 -0.15
18 0.06
19 0.09
2 -0.57
20 -0.15
21 -0.15
22 -0.15
23 -0.15
25 0.42
26 0.06
27 -0.15
28 -0.15
29 -0.15
3 -0.44
30 0.57
39 0.15
4 -0.84
40 0.15
49 0.15
5 -0.84
50 0.15
51 0.15
52 0.15
57 0.15
58 0.15
59 0.15
6 -0.39
60 0.37
61 0.4
7 0.37
8 0.37
9 0.37

> <PUBCHEM_EFFECTIVE_ROTOR_COUNT>
12.2

> <PUBCHEM_PHARMACOPHORE_FEATURES>
10
1 1 acceptor
1 2 acceptor
1 4 cation
1 5 cation
1 6 donor
3 15 16 18 hydrophobe
3 17 24 26 hydrophobe
6 11 13 14 19 22 23 rings
6 12 20 21 27 28 29 rings
6 4 5 7 8 9 10 rings

> <PUBCHEM_HEAVY_ATOM_COUNT>
30

> <PUBCHEM_ATOM_DEF_STEREO_COUNT>
0

> <PUBCHEM_ATOM_UDEF_STEREO_COUNT>
0

> <PUBCHEM_BOND_DEF_STEREO_COUNT>
0

> <PUBCHEM_BOND_UDEF_STEREO_COUNT>
0

> <PUBCHEM_ISOTOPIC_ATOM_COUNT>
0

> <PUBCHEM_COMPONENT_COUNT>
1

> <PUBCHEM_CACTVS_TAUTO_COUNT>
6

> <PUBCHEM_CONFORMER_ID>
0000103400000001

> <PUBCHEM_MMFF94_ENERGY>
92.8331

> <PUBCHEM_FEATURE_SELFOVERLAP>
50.745

> <PUBCHEM_SHAPE_FINGERPRINT>
10 15 6266896857453217916
10162869 55 17632293488956753388
10165383 225 8790884077835618065
10533779 47 15285348557516803780
106641 1 17603308163304237248
11061554 47 10087644788536464511
11211813 74 10231753393191443624
11408170 108 17822002155313350367
11409948 41 16486983950947341786
11463208 3 18188485900382352246
12498461 61 17458350707247883207
12522641 33 13470690360304727304
12539745 222 17967811691678131721
12664476 115 6627747765138827331
13530399 1 6627453143547110754
14202775 3 18335414690514166727
14251764 46 18410855473013076682
14344974 52 12751225992279806409
15065858 18 18041001773210793721
15247644 1 18259983786207129871
155225 1 9367348133258918923
15690457 1 18411419522520466801
15890870 6 17846497037103360115
16728433 110 18412547587244437408
1754911 235 13326852219605384747
1818759 1 18408884045007940495
18335252 98 18187927330936018694
19302320 297 5689587303832637410
19315958 150 14562526297465121916
20105231 36 18261107517819632238
20771845 65 18336543833564832049
21026386 39 17346608496089967234
21102433 48 18412831304389431202
21130935 74 18118684568565131002
21267235 1 18409728482638728204
21360443 89 18335143098129882585
21362267 2 14189283808537154838
21362267 313 9222962456390071068
21792961 116 17917991686067830545
232437 2 18342455950366952227
23524908 199 12535352329295894280
23569917 315 18193555804554297026
306946 40 13768198442712300227
335352 9 18131628984743891106
42767 2 16702026396305261519
4339292 15 18343865524453343005
4353968 344 18410579501319469661
44389302 135 17603580817225666247
4760202 170 13686004385636180166
54039377 194 18412545410307259821
5719381 82 18410854361138890383
9937071 3 17967245416654768047

> <PUBCHEM_SHAPE_MULTIPOLES>
584.83
45.45
2.15
1.03
75.27
0.71
0.04
-41.36
2.61
3.04
0.23
-1.23
-0.41
-1.13

> <PUBCHEM_SHAPE_SELFOVERLAP>
1216.243

> <PUBCHEM_SHAPE_VOLUME>
331.7

> <PUBCHEM_COORDINATE_TYPE>
2
5
10

$$$$

