11555
  -OEChem-06261205492D

 33 30  0     0  0  0  0  0  0999 V2000
    1.4030    3.4300    0.0000 S   0  0  0  0  0  0  0  0  0  0  0  0
    7.9409    0.3100    0.0000 O   0  0  0  0  0  0  0  0  0  0  0  0
    7.9409    4.7400    0.0000 O   0  0  0  0  0  0  0  0  0  0  0  0
    2.2690    3.9300    0.0000 O   0  0  0  0  0  0  0  0  0  0  0  0
    0.5369    2.9300    0.0000 O   0  0  0  0  0  0  0  0  0  0  0  0
    0.9030    4.2960    0.0000 O   0  0  0  0  0  0  0  0  0  0  0  0
    1.9030    2.5640    0.0000 O   0  0  0  0  0  0  0  0  0  0  0  0
    7.0749    6.2400    0.0000 N   0  0  0  0  0  0  0  0  0  0  0  0
    7.0749    1.8100    0.0000 N   0  0  0  0  0  0  0  0  0  0  0  0
    5.3429    1.8100    0.0000 N   0  0  0  0  0  0  0  0  0  0  0  0
    5.3429    6.2400    0.0000 N   0  0  0  0  0  0  0  0  0  0  0  0
    6.2089    0.3100    0.0000 N   0  0  0  0  0  0  0  0  0  0  0  0
    6.2089    4.7400    0.0000 N   0  0  0  0  0  0  0  0  0  0  0  0
    8.8070    6.2400    0.0000 N   0  0  0  0  0  0  0  0  0  0  0  0
    8.8070    1.8100    0.0000 N   0  0  0  0  0  0  0  0  0  0  0  0
    6.2089    5.7400    0.0000 C   0  0  0  0  0  0  0  0  0  0  0  0
    6.2089    1.3100    0.0000 C   0  0  0  0  0  0  0  0  0  0  0  0
    7.9409    1.3100    0.0000 C   0  0  0  0  0  0  0  0  0  0  0  0
    7.9409    5.7400    0.0000 C   0  0  0  0  0  0  0  0  0  0  0  0
    4.8059    1.5000    0.0000 H   0  0  0  0  0  0  0  0  0  0  0  0
    5.3429    2.4300    0.0000 H   0  0  0  0  0  0  0  0  0  0  0  0
    4.8059    5.9300    0.0000 H   0  0  0  0  0  0  0  0  0  0  0  0
    5.3429    6.8600    0.0000 H   0  0  0  0  0  0  0  0  0  0  0  0
    5.6720    0.0000    0.0000 H   0  0  0  0  0  0  0  0  0  0  0  0
    6.7458    0.0000    0.0000 H   0  0  0  0  0  0  0  0  0  0  0  0
    5.6720    4.4300    0.0000 H   0  0  0  0  0  0  0  0  0  0  0  0
    6.7458    4.4300    0.0000 H   0  0  0  0  0  0  0  0  0  0  0  0
    9.3439    1.5000    0.0000 H   0  0  0  0  0  0  0  0  0  0  0  0
    8.8070    2.4300    0.0000 H   0  0  0  0  0  0  0  0  0  0  0  0
    9.3439    5.9300    0.0000 H   0  0  0  0  0  0  0  0  0  0  0  0
    8.8070    6.8600    0.0000 H   0  0  0  0  0  0  0  0  0  0  0  0
    2.8059    3.6200    0.0000 H   0  0  0  0  0  0  0  0  0  0  0  0
    0.0000    3.2400    0.0000 H   0  0  0  0  0  0  0  0  0  0  0  0
  1  4  1  0  0  0  0
  1  5  1  0  0  0  0
  1  6  2  0  0  0  0
  1  7  2  0  0  0  0
  2 18  2  0  0  0  0
  3 19  2  0  0  0  0
  4 32  1  0  0  0  0
  5 33  1  0  0  0  0
  8 16  2  0  0  0  0
  8 19  1  0  0  0  0
  9 17  2  0  0  0  0
  9 18  1  0  0  0  0
 10 17  1  0  0  0  0
 10 20  1  0  0  0  0
 10 21  1  0  0  0  0
 11 16  1  0  0  0  0
 11 22  1  0  0  0  0
 11 23  1  0  0  0  0
 12 17  1  0  0  0  0
 12 24  1  0  0  0  0
 12 25  1  0  0  0  0
 13 16  1  0  0  0  0
 13 26  1  0  0  0  0
 13 27  1  0  0  0  0
 14 19  1  0  0  0  0
 14 30  1  0  0  0  0
 14 31  1  0  0  0  0
 15 18  1  0  0  0  0
 15 28  1  0  0  0  0
 15 29  1  0  0  0  0
M  END
> <PUBCHEM_COMPOUND_CID>
11555

> <PUBCHEM_COMPOUND_CANONICALIZED>
1

> <PUBCHEM_CACTVS_COMPLEXITY>
184

> <PUBCHEM_CACTVS_HBOND_ACCEPTOR>
6

> <PUBCHEM_CACTVS_HBOND_DONOR>
8

> <PUBCHEM_CACTVS_ROTATABLE_BOND>
0

> <PUBCHEM_CACTVS_SUBSKEYS>
AAADccBj+ABAAAAAAAAAAAAAAAAAAAAAAAAAAAAAAAAAAAAAAAAABgAQCAAAAAAAAAABAAJAAIAoAAAANDAAAAEAAAAAAAAAAAAAAAAAAAAAAAAAAAAAAAAAAAAAAAAAAAAAAAAAAAAAAAAAAAAAAAAAAA==

> <PUBCHEM_IUPAC_OPENEYE_NAME>
diaminomethyleneurea; sulfuric acid

> <PUBCHEM_IUPAC_CAS_NAME>
diaminomethylideneurea; sulfuric acid

> <PUBCHEM_IUPAC_NAME>
diaminomethylideneurea; sulfuric acid

> <PUBCHEM_IUPAC_SYSTEMATIC_NAME>
1-[bis(azanyl)methylidene]urea; sulfuric acid

> <PUBCHEM_IUPAC_TRADITIONAL_NAME>
diaminomethyleneurea; sulfuric acid

> <PUBCHEM_IUPAC_INCHI>
InChI=1S/2C2H6N4O.H2O4S/c2*3-1(4)6-2(5)7;1-5(2,3)4/h2*(H6,3,4,5,6,7);(H2,1,2,3,4)

> <PUBCHEM_IUPAC_INCHIKEY>
IATXFPUBPMZBPH-UHFFFAOYSA-N

> <PUBCHEM_EXACT_MASS>
302.075701

> <PUBCHEM_MOLECULAR_FORMULA>
C4H14N8O6S

> <PUBCHEM_MOLECULAR_WEIGHT>
302.26896

> <PUBCHEM_OPENEYE_CAN_SMILES>
C(=NC(=O)N)(N)N.C(=NC(=O)N)(N)N.OS(=O)(=O)O

> <PUBCHEM_OPENEYE_ISO_SMILES>
C(=NC(=O)N)(N)N.C(=NC(=O)N)(N)N.OS(=O)(=O)O

> <PUBCHEM_CACTVS_TPSA>
298

> <PUBCHEM_MONOISOTOPIC_WEIGHT>
302.075701

> <PUBCHEM_TOTAL_CHARGE>
0

> <PUBCHEM_HEAVY_ATOM_COUNT>
19

> <PUBCHEM_ATOM_DEF_STEREO_COUNT>
0

> <PUBCHEM_ATOM_UDEF_STEREO_COUNT>
0

> <PUBCHEM_BOND_DEF_STEREO_COUNT>
0

> <PUBCHEM_BOND_UDEF_STEREO_COUNT>
0

> <PUBCHEM_ISOTOPIC_ATOM_COUNT>
0

> <PUBCHEM_COMPONENT_COUNT>
3

> <PUBCHEM_CACTVS_TAUTO_COUNT>
15

> <PUBCHEM_COORDINATE_TYPE>
1
5
255

$$$$

