9086
  -OEChem-06261203233D

 14 13  0     0  0  0  0  0  0999 V2000
    2.4064    0.3415   -0.0055 O   0  0  0  0  0  0  0  0  0  0  0  0
   -2.4372    0.3349   -0.0067 N   0  0  0  0  0  0  0  0  0  0  0  0
    0.0112    0.3461    0.0121 C   0  0  0  0  0  0  0  0  0  0  0  0
   -1.2501   -0.5114    0.0014 C   0  0  0  0  0  0  0  0  0  0  0  0
    1.2697   -0.5111   -0.0013 C   0  0  0  0  0  0  0  0  0  0  0  0
    0.0264    1.0191   -0.8552 H   0  0  0  0  0  0  0  0  0  0  0  0
    0.0274    0.9972    0.8958 H   0  0  0  0  0  0  0  0  0  0  0  0
   -1.2782   -1.1605    0.8830 H   0  0  0  0  0  0  0  0  0  0  0  0
   -1.2659   -1.1571   -0.8831 H   0  0  0  0  0  0  0  0  0  0  0  0
    1.3041   -1.1406   -0.8962 H   0  0  0  0  0  0  0  0  0  0  0  0
    1.3163   -1.1500    0.8863 H   0  0  0  0  0  0  0  0  0  0  0  0
   -2.4144    0.9492   -0.8199 H   0  0  0  0  0  0  0  0  0  0  0  0
   -2.4259    0.9484    0.8073 H   0  0  0  0  0  0  0  0  0  0  0  0
    3.1923   -0.2311   -0.0139 H   0  0  0  0  0  0  0  0  0  0  0  0
  1  5  1  0  0  0  0
  1 14  1  0  0  0  0
  2  4  1  0  0  0  0
  2 12  1  0  0  0  0
  2 13  1  0  0  0  0
  3  4  1  0  0  0  0
  3  5  1  0  0  0  0
  3  6  1  0  0  0  0
  3  7  1  0  0  0  0
  4  8  1  0  0  0  0
  4  9  1  0  0  0  0
  5 10  1  0  0  0  0
  5 11  1  0  0  0  0
M  END
> <PUBCHEM_COMPOUND_CID>
9086

> <PUBCHEM_CONFORMER_RMSD>
0.4

> <PUBCHEM_CONFORMER_DIVERSEORDER>
1
8
5
7
3
9
6
2
4

> <PUBCHEM_MMFF94_PARTIAL_CHARGES>
7
1 -0.68
12 0.36
13 0.36
14 0.4
2 -0.99
4 0.27
5 0.28

> <PUBCHEM_EFFECTIVE_ROTOR_COUNT>
2

> <PUBCHEM_PHARMACOPHORE_FEATURES>
4
1 1 acceptor
1 1 donor
1 2 cation
1 2 donor

> <PUBCHEM_HEAVY_ATOM_COUNT>
5

> <PUBCHEM_ATOM_DEF_STEREO_COUNT>
0

> <PUBCHEM_ATOM_UDEF_STEREO_COUNT>
0

> <PUBCHEM_BOND_DEF_STEREO_COUNT>
0

> <PUBCHEM_BOND_UDEF_STEREO_COUNT>
0

> <PUBCHEM_ISOTOPIC_ATOM_COUNT>
0

> <PUBCHEM_COMPONENT_COUNT>
1

> <PUBCHEM_CACTVS_TAUTO_COUNT>
1

> <PUBCHEM_CONFORMER_ID>
0000237E00000001

> <PUBCHEM_MMFF94_ENERGY>
-2.7968

> <PUBCHEM_FEATURE_SELFOVERLAP>
20.297

> <PUBCHEM_SHAPE_FINGERPRINT>
139733 1 9295288343653815787
14390081 3 18259707774269829696
16714656 1 18408884044485571157
20096714 4 18410856533880554800
29004967 10 16486970712987546928
5460574 1 9295290542830058627

> <PUBCHEM_SHAPE_MULTIPOLES>
92.05
3.22
0.76
0.58
0.06
0.06
0
-0.38
-0.01
0
0
0.01
0.01
0

> <PUBCHEM_SHAPE_SELFOVERLAP>
152.967

> <PUBCHEM_SHAPE_VOLUME>
63.4

> <PUBCHEM_COORDINATE_TYPE>
2
5
10

$$$$

