5506
  -OEChem-06261200432D

 44 47  0     1  0  0  0  0  0999 V2000
    5.0000   -0.6333    0.0000 S   0  0  0  0  0  0  0  0  0  0  0  0
    6.5033   -1.4935    0.0000 O   0  0  0  0  0  0  0  0  0  0  0  0
    5.0066   -2.3653    0.0000 N   0  0  0  0  0  0  0  0  0  0  0  0
   10.2805    1.2925    0.0000 C   0  0  3  0  0  0  0  0  0  0  0  0
   10.5393    2.2584    0.0000 C   0  0  3  0  0  0  0  0  0  0  0  0
    9.8027    3.2410    0.0000 C   0  0  0  0  0  0  0  0  0  0  0  0
   12.1124    0.5336    0.0000 C   0  0  0  0  0  0  0  0  0  0  0  0
   12.3712    1.4996    0.0000 C   0  0  0  0  0  0  0  0  0  0  0  0
    8.5484    0.2924    0.0000 C   0  0  0  0  0  0  0  0  0  0  0  0
    8.0484    1.1585    0.0000 C   0  0  0  0  0  0  0  0  0  0  0  0
    8.0416   -0.6176    0.0000 C   0  0  0  0  0  0  0  0  0  0  0  0
    7.0069    1.1745    0.0000 C   0  0  0  0  0  0  0  0  0  0  0  0
    7.0000   -0.6256    0.0000 C   0  0  0  0  0  0  0  0  0  0  0  0
    6.4792    0.2765    0.0000 C   0  0  0  0  0  0  0  0  0  0  0  0
    5.5033   -1.4974    0.0000 C   0  0  0  0  0  0  0  0  0  0  0  0
    4.0067   -2.3692    0.0000 C   0  0  0  0  0  0  0  0  0  0  0  0
    5.5100   -3.2294    0.0000 C   0  0  0  0  0  0  0  0  0  0  0  0
    3.5033   -1.5051    0.0000 C   0  0  0  0  0  0  0  0  0  0  0  0
    3.5100   -3.2371    0.0000 C   0  0  0  0  0  0  0  0  0  0  0  0
    2.5033   -1.5090    0.0000 C   0  0  0  0  0  0  0  0  0  0  0  0
    2.5100   -3.2410    0.0000 C   0  0  0  0  0  0  0  0  0  0  0  0
    2.0067   -2.3769    0.0000 C   0  0  0  0  0  0  0  0  0  0  0  0
    2.0000   -0.6449    0.0000 C   0  0  0  0  0  0  0  0  0  0  0  0
   10.7509    1.6962    0.0000 H   0  0  0  0  0  0  0  0  0  0  0  0
   10.9195    2.7481    0.0000 H   0  0  0  0  0  0  0  0  0  0  0  0
   10.1205    3.7733    0.0000 H   0  0  0  0  0  0  0  0  0  0  0  0
    9.1895    3.3329    0.0000 H   0  0  0  0  0  0  0  0  0  0  0  0
   11.9004   -0.0490    0.0000 H   0  0  0  0  0  0  0  0  0  0  0  0
   12.7037    0.3472    0.0000 H   0  0  0  0  0  0  0  0  0  0  0  0
   12.9625    1.3131    0.0000 H   0  0  0  0  0  0  0  0  0  0  0  0
   12.5833    2.0822    0.0000 H   0  0  0  0  0  0  0  0  0  0  0  0
    8.3578   -1.1509    0.0000 H   0  0  0  0  0  0  0  0  0  0  0  0
    6.7031    1.7150    0.0000 H   0  0  0  0  0  0  0  0  0  0  0  0
    5.8592    0.2789    0.0000 H   0  0  0  0  0  0  0  0  0  0  0  0
    4.9742   -3.5415    0.0000 H   0  0  0  0  0  0  0  0  0  0  0  0
    5.8221   -3.7652    0.0000 H   0  0  0  0  0  0  0  0  0  0  0  0
    6.0457   -2.9174    0.0000 H   0  0  0  0  0  0  0  0  0  0  0  0
    3.8112   -0.9670    0.0000 H   0  0  0  0  0  0  0  0  0  0  0  0
    3.8221   -3.7729    0.0000 H   0  0  0  0  0  0  0  0  0  0  0  0
    2.2021   -3.7791    0.0000 H   0  0  0  0  0  0  0  0  0  0  0  0
    1.3867   -2.3793    0.0000 H   0  0  0  0  0  0  0  0  0  0  0  0
    2.5357   -0.3328    0.0000 H   0  0  0  0  0  0  0  0  0  0  0  0
    1.6879   -0.1091    0.0000 H   0  0  0  0  0  0  0  0  0  0  0  0
    1.4643   -0.9569    0.0000 H   0  0  0  0  0  0  0  0  0  0  0  0
  1 15  2  0  0  0  0
  2 13  1  0  0  0  0
  2 15  1  0  0  0  0
  3 15  1  0  0  0  0
  3 16  1  0  0  0  0
  3 17  1  0  0  0  0
  4  6  1  0  0  0  0
  4  7  1  0  0  0  0
  4  9  1  0  0  0  0
  4 24  1  0  0  0  0
  5  6  1  0  0  0  0
  5  8  1  0  0  0  0
  5 10  1  0  0  0  0
  5 25  1  0  0  0  0
  6 26  1  0  0  0  0
  6 27  1  0  0  0  0
  7  8  1  0  0  0  0
  7 28  1  0  0  0  0
  7 29  1  0  0  0  0
  8 30  1  0  0  0  0
  8 31  1  0  0  0  0
  9 10  2  0  0  0  0
  9 11  1  0  0  0  0
 10 12  1  0  0  0  0
 11 13  2  0  0  0  0
 11 32  1  0  0  0  0
 12 14  2  0  0  0  0
 12 33  1  0  0  0  0
 13 14  1  0  0  0  0
 14 34  1  0  0  0  0
 16 18  1  0  0  0  0
 16 19  2  0  0  0  0
 17 35  1  0  0  0  0
 17 36  1  0  0  0  0
 17 37  1  0  0  0  0
 18 20  2  0  0  0  0
 18 38  1  0  0  0  0
 19 21  1  0  0  0  0
 19 39  1  0  0  0  0
 20 22  1  0  0  0  0
 20 23  1  0  0  0  0
 21 22  2  0  0  0  0
 21 40  1  0  0  0  0
 22 41  1  0  0  0  0
 23 42  1  0  0  0  0
 23 43  1  0  0  0  0
 23 44  1  0  0  0  0
M  END
> <PUBCHEM_COMPOUND_CID>
5506

> <PUBCHEM_COMPOUND_CANONICALIZED>
1

> <PUBCHEM_CACTVS_COMPLEXITY>
453

> <PUBCHEM_CACTVS_HBOND_ACCEPTOR>
2

> <PUBCHEM_CACTVS_HBOND_DONOR>
0

> <PUBCHEM_CACTVS_ROTATABLE_BOND>
3

> <PUBCHEM_CACTVS_SUBSKEYS>
AAADceB6IABAAAAAAAAAAAAAAAAAAYMAAAAwYMAAAAAAAGABQAAAHgQAAAAADQyBmAQyxoMABACEAiRCQACCCAAhIggIiAAObIgMJiLEsZuMMChkwBFI6AeQwPAOoAABQAAQAABAAAaAACAAAQAACAAAAA==

> <PUBCHEM_IUPAC_INCHI>
InChI=1S/C20H21NOS/c1-13-4-3-5-16(10-13)21(2)20(23)22-17-8-9-18-14-6-7-15(11-14)19(18)12-17/h3-5,8-10,12,14-15H,6-7,11H2,1-2H3

> <PUBCHEM_IUPAC_INCHIKEY>
CANCCLAKQQHLNK-UHFFFAOYSA-N

> <PUBCHEM_XLOGP3_AA>
5.5

> <PUBCHEM_EXACT_MASS>
323.134385

> <PUBCHEM_MOLECULAR_FORMULA>
C20H21NOS

> <PUBCHEM_MOLECULAR_WEIGHT>
323.45184

> <PUBCHEM_OPENEYE_CAN_SMILES>
CC1=CC(=CC=C1)N(C)C(=S)OC2=CC3=C(C=C2)C4CCC3C4

> <PUBCHEM_OPENEYE_ISO_SMILES>
CC1=CC(=CC=C1)N(C)C(=S)OC2=CC3=C(C=C2)C4CCC3C4

> <PUBCHEM_CACTVS_TPSA>
44.6

> <PUBCHEM_MONOISOTOPIC_WEIGHT>
323.134385

> <PUBCHEM_TOTAL_CHARGE>
0

> <PUBCHEM_HEAVY_ATOM_COUNT>
23

> <PUBCHEM_ATOM_DEF_STEREO_COUNT>
0

> <PUBCHEM_ATOM_UDEF_STEREO_COUNT>
2

> <PUBCHEM_BOND_DEF_STEREO_COUNT>
0

> <PUBCHEM_BOND_UDEF_STEREO_COUNT>
0

> <PUBCHEM_ISOTOPIC_ATOM_COUNT>
0

> <PUBCHEM_COMPONENT_COUNT>
1

> <PUBCHEM_CACTVS_TAUTO_COUNT>
1

> <PUBCHEM_COORDINATE_TYPE>
1
5
255

> <PUBCHEM_BONDANNOTATIONS>
10  12  8
11  13  8
12  14  8
13  14  8
16  18  8
16  19  8
18  20  8
19  21  8
20  22  8
21  22  8
4  7  3
5  8  3
9  10  8
9  11  8

$$$$

