6382
  -OEChem-06261201173D

  5  4  0     0  0  0  0  0  0999 V2000
   -1.6149   -0.9731   -0.0001 Br  0  0  0  0  0  0  0  0  0  0  0  0
    1.6142   -0.9740   -0.0002 Br  0  0  0  0  0  0  0  0  0  0  0  0
    0.0004    0.9199    1.0880 F   0  0  0  0  0  0  0  0  0  0  0  0
    0.0003    0.9205   -1.0877 F   0  0  0  0  0  0  0  0  0  0  0  0
    0.0001    0.1067    0.0000 C   0  0  0  0  0  0  0  0  0  0  0  0
  1  5  1  0  0  0  0
  2  5  1  0  0  0  0
  3  5  1  0  0  0  0
  4  5  1  0  0  0  0
M  END
> <PUBCHEM_COMPOUND_CID>
6382

> <PUBCHEM_CONFORMER_RMSD>
0.4

> <PUBCHEM_CONFORMER_DIVERSEORDER>
1

> <PUBCHEM_MMFF94_PARTIAL_CHARGES>
5
1 -0.23
2 -0.23
3 -0.34
4 -0.34
5 1.14

> <PUBCHEM_EFFECTIVE_ROTOR_COUNT>
0

> <PUBCHEM_PHARMACOPHORE_FEATURES>
3
1 1 hydrophobe
1 2 hydrophobe
3 1 2 5 hydrophobe

> <PUBCHEM_HEAVY_ATOM_COUNT>
5

> <PUBCHEM_ATOM_DEF_STEREO_COUNT>
0

> <PUBCHEM_ATOM_UDEF_STEREO_COUNT>
0

> <PUBCHEM_BOND_DEF_STEREO_COUNT>
0

> <PUBCHEM_BOND_UDEF_STEREO_COUNT>
0

> <PUBCHEM_ISOTOPIC_ATOM_COUNT>
0

> <PUBCHEM_COMPONENT_COUNT>
1

> <PUBCHEM_CACTVS_TAUTO_COUNT>
1

> <PUBCHEM_CONFORMER_ID>
000018EE00000001

> <PUBCHEM_MMFF94_ENERGY>
0.0335

> <PUBCHEM_FEATURE_SELFOVERLAP>
16.539

> <PUBCHEM_SHAPE_FINGERPRINT>
139733 1 9295289443160539075
16714656 1 17915183639863523183
21015797 1 9510352697782461826
29004967 10 17845927446644571642
5943 1 14687836675330034724

> <PUBCHEM_SHAPE_MULTIPOLES>
100.23
2.01
1.3
0.95
0
0.04
0
1.09
0
0
0
0
-0.28
0

> <PUBCHEM_SHAPE_SELFOVERLAP>
153.548

> <PUBCHEM_SHAPE_VOLUME>
75.9

> <PUBCHEM_COORDINATE_TYPE>
2
5
10

$$$$

