17396349
  -OEChem-06241222563D

 43 45  0     0  0  0  0  0  0999 V2000
   -4.0137   -2.8652    0.9718 Cl  0  0  0  0  0  0  0  0  0  0  0  0
    5.5060    1.4394    1.4655 O   0  0  0  0  0  0  0  0  0  0  0  0
    6.1344   -0.8871    1.4729 O   0  0  0  0  0  0  0  0  0  0  0  0
   -5.0874   -0.0749    1.1679 O   0  0  0  0  0  0  0  0  0  0  0  0
   -3.8387    2.1908    0.2155 O   0  0  0  0  0  0  0  0  0  0  0  0
    0.2108   -1.4979   -1.9954 O   0  0  0  0  0  0  0  0  0  0  0  0
    0.7253    0.6635   -1.3301 N   0  0  0  0  0  0  0  0  0  0  0  0
    3.1127    0.2649   -1.0555 C   0  0  0  0  0  0  0  0  0  0  0  0
    2.0198    0.7311   -1.9584 C   0  0  0  0  0  0  0  0  0  0  0  0
    4.7658    0.7012    0.5940 C   0  0  0  0  0  0  0  0  0  0  0  0
    3.7619    1.1795   -0.2227 C   0  0  0  0  0  0  0  0  0  0  0  0
    5.1247   -0.6273    0.5982 C   0  0  0  0  0  0  0  0  0  0  0  0
    3.4794   -1.0924   -1.0512 C   0  0  0  0  0  0  0  0  0  0  0  0
    4.4996   -1.5507   -0.2141 C   0  0  0  0  0  0  0  0  0  0  0  0
   -1.4005   -0.3646   -0.7238 C   0  0  0  0  0  0  0  0  0  0  0  0
   -0.0828   -0.4630   -1.4028 C   0  0  0  0  0  0  0  0  0  0  0  0
    6.3706    0.4264    2.0192 C   0  0  0  0  0  0  0  0  0  0  0  0
   -2.0132    0.8786   -0.5662 C   0  0  0  0  0  0  0  0  0  0  0  0
   -3.2511    0.9705    0.0700 C   0  0  0  0  0  0  0  0  0  0  0  0
   -3.8764   -0.1810    0.5486 C   0  0  0  0  0  0  0  0  0  0  0  0
   -2.0258   -1.5159   -0.2451 C   0  0  0  0  0  0  0  0  0  0  0  0
   -3.2637   -1.4240    0.3911 C   0  0  0  0  0  0  0  0  0  0  0  0
   -6.2457   -0.1720    0.3430 C   0  0  0  0  0  0  0  0  0  0  0  0
   -7.4803   -0.0460    1.2098 C   0  0  0  0  0  0  0  0  0  0  0  0
   -3.1320    3.3163   -0.3023 C   0  0  0  0  0  0  0  0  0  0  0  0
    2.1844    1.7732   -2.2561 H   0  0  0  0  0  0  0  0  0  0  0  0
    2.0088    0.1411   -2.8827 H   0  0  0  0  0  0  0  0  0  0  0  0
    3.4900    2.2296   -0.2127 H   0  0  0  0  0  0  0  0  0  0  0  0
    2.9759   -1.8018   -1.7030 H   0  0  0  0  0  0  0  0  0  0  0  0
    4.7862   -2.5962   -0.2087 H   0  0  0  0  0  0  0  0  0  0  0  0
    0.4556    1.4577   -0.7594 H   0  0  0  0  0  0  0  0  0  0  0  0
    7.4115    0.7070    1.8209 H   0  0  0  0  0  0  0  0  0  0  0  0
    6.2168    0.3884    3.1037 H   0  0  0  0  0  0  0  0  0  0  0  0
   -1.5229    1.7475   -0.9862 H   0  0  0  0  0  0  0  0  0  0  0  0
   -1.5488   -2.4865   -0.3624 H   0  0  0  0  0  0  0  0  0  0  0  0
   -6.2593   -1.1344   -0.1806 H   0  0  0  0  0  0  0  0  0  0  0  0
   -6.2375    0.6313   -0.4028 H   0  0  0  0  0  0  0  0  0  0  0  0
   -7.5006   -0.8357    1.9682 H   0  0  0  0  0  0  0  0  0  0  0  0
   -7.4798    0.9094    1.7449 H   0  0  0  0  0  0  0  0  0  0  0  0
   -8.3901   -0.1124    0.6067 H   0  0  0  0  0  0  0  0  0  0  0  0
   -3.7393    4.2022   -0.0883 H   0  0  0  0  0  0  0  0  0  0  0  0
   -3.0274    3.2616   -1.3913 H   0  0  0  0  0  0  0  0  0  0  0  0
   -2.1724    3.4618    0.2056 H   0  0  0  0  0  0  0  0  0  0  0  0
  1 22  1  0  0  0  0
  2 10  1  0  0  0  0
  2 17  1  0  0  0  0
  3 12  1  0  0  0  0
  3 17  1  0  0  0  0
  4 20  1  0  0  0  0
  4 23  1  0  0  0  0
  5 19  1  0  0  0  0
  5 25  1  0  0  0  0
  6 16  2  0  0  0  0
  7  9  1  0  0  0  0
  7 16  1  0  0  0  0
  7 31  1  0  0  0  0
  8  9  1  0  0  0  0
  8 11  2  0  0  0  0
  8 13  1  0  0  0  0
  9 26  1  0  0  0  0
  9 27  1  0  0  0  0
 10 11  1  0  0  0  0
 10 12  2  0  0  0  0
 11 28  1  0  0  0  0
 12 14  1  0  0  0  0
 13 14  2  0  0  0  0
 13 29  1  0  0  0  0
 14 30  1  0  0  0  0
 15 16  1  0  0  0  0
 15 18  2  0  0  0  0
 15 21  1  0  0  0  0
 17 32  1  0  0  0  0
 17 33  1  0  0  0  0
 18 19  1  0  0  0  0
 18 34  1  0  0  0  0
 19 20  2  0  0  0  0
 20 22  1  0  0  0  0
 21 22  2  0  0  0  0
 21 35  1  0  0  0  0
 23 24  1  0  0  0  0
 23 36  1  0  0  0  0
 23 37  1  0  0  0  0
 24 38  1  0  0  0  0
 24 39  1  0  0  0  0
 24 40  1  0  0  0  0
 25 41  1  0  0  0  0
 25 42  1  0  0  0  0
 25 43  1  0  0  0  0
M  END
> <PUBCHEM_COMPOUND_CID>
17396349

> <PUBCHEM_CONFORMER_RMSD>
0.8

> <PUBCHEM_CONFORMER_DIVERSEORDER>
14
89
35
26
40
101
4
72
22
49
27
45
70
110
118
74
1
85
51
130
113
50
139
91
57
86
95
25
135
3
28
23
138
52
78
126
93
122
104
73
29
13
77
82
24
109
53
76
7
92
33
21
94
120
46
61
116
44
15
103
137
88
43
121
112
80
71
9
87
62
75
114
69
54
2
100
32
136
31
134
39
63
98
10
128
42
99
97
105
102
81
38
59
90
18
30
67
66
17
119
56
132
83
115
11
107
124
111
108
55
36
127
60
12
47
123
96
84
41
37
117
131
34
64
65
125
48
6
106
133
58
19
8
79
5
20
68
16
129

> <PUBCHEM_MMFF94_PARTIAL_CHARGES>
30
1 -0.18
10 0.08
11 -0.15
12 0.08
13 -0.15
14 -0.15
15 0.09
16 0.54
17 0.56
18 -0.15
19 0.08
2 -0.36
20 0.08
21 -0.15
22 0.18
23 0.28
25 0.28
28 0.15
29 0.15
3 -0.36
30 0.15
31 0.37
34 0.15
35 0.15
4 -0.36
5 -0.36
6 -0.57
7 -0.73
8 -0.14
9 0.44

> <PUBCHEM_EFFECTIVE_ROTOR_COUNT>
7.6

> <PUBCHEM_PHARMACOPHORE_FEATURES>
9
1 2 acceptor
1 3 acceptor
1 4 acceptor
1 5 acceptor
1 6 acceptor
1 7 donor
5 2 3 10 12 17 rings
6 15 18 19 20 21 22 rings
6 8 10 11 12 13 14 rings

> <PUBCHEM_HEAVY_ATOM_COUNT>
25

> <PUBCHEM_ATOM_DEF_STEREO_COUNT>
0

> <PUBCHEM_ATOM_UDEF_STEREO_COUNT>
0

> <PUBCHEM_BOND_DEF_STEREO_COUNT>
0

> <PUBCHEM_BOND_UDEF_STEREO_COUNT>
0

> <PUBCHEM_ISOTOPIC_ATOM_COUNT>
0

> <PUBCHEM_COMPONENT_COUNT>
1

> <PUBCHEM_CACTVS_TAUTO_COUNT>
2

> <PUBCHEM_CONFORMER_ID>
0109727D0000000E

> <PUBCHEM_MMFF94_ENERGY>
78.3447

> <PUBCHEM_FEATURE_SELFOVERLAP>
45.829

> <PUBCHEM_SHAPE_FINGERPRINT>
10 15 18334295344863827128
10319926 262 18339356465658756358
10498660 4 4967609516662114894
10928967 22 16200441281972962378
12035758 1 18262501625749174779
12236239 1 17346311579803278525
12403259 415 17822566213410252532
12596602 18 17988926665152877040
12616971 3 17275102782613877079
12633257 1 17346877849703460270
12670546 177 9151175359365661830
12892183 10 18410014325712847070
12925494 130 18051413165142357553
13103583 49 17988930011195689772
13533116 47 16773507776792390685
13583140 156 18040724644988731054
13668630 136 14333127481221606290
13675066 3 18334010622981401430
13685833 64 15554447383599373101
13782708 43 15266481922032740739
13914758 101 16917351463828925093
14347424 109 17775003462111924580
14528608 73 6555413111065374478
15183329 4 9439411228316431855
15188451 53 17917713495970740573
15348495 7 18408606933580735962
15475509 8 11455896862693654319
15575132 122 5833726634410261347
16994733 274 15864341498422175923
17780758 139 18202290190619709704
17857418 61 17632577132443828398
1813 80 16271919446030674878
193927 3 14476681966281849172
21033648 29 17822288007141011212
21065199 12 18407759240180634502
21315764 119 9223239571737300680
21792934 111 18412537739817831697
21859007 373 17845948441072742157
23559900 14 18119499189852299911
23576562 1 7348304997352261107
2838139 119 14634876353522749362
312425 54 18341896298843387450
3383291 50 18059849555044169915
3472631 163 14779552253599726048
351380 3 16200154313695967810
3886686 26 17624421178553711587
465052 167 15841545271665382930
474 4 14851601072782189030
5104073 3 18263361563040844146
543368 44 5112005049637051339
559249 180 17275109461693879485
5924683 9 18262806163935964999
633830 44 14635133643121768390
960060 61 12679455374792159590
9981440 41 18114747156631637791

> <PUBCHEM_SHAPE_MULTIPOLES>
482.03
17.53
2.33
1.67
1.19
0.58
-0.09
-1.07
11.68
-2.64
0.15
2.06
-0.07
0.65

> <PUBCHEM_SHAPE_SELFOVERLAP>
1030.164

> <PUBCHEM_SHAPE_VOLUME>
269.8

> <PUBCHEM_COORDINATE_TYPE>
2
5
10

$$$$

