4363
  -OEChem-06261200043D

 32 31  0     1  0  0  0  0  0999 V2000
    1.7507   -3.3086   -0.5073 S   0  0  0  0  0  0  0  0  0  0  0  0
   -0.0255    1.2916    1.7092 O   0  0  0  0  0  0  0  0  0  0  0  0
   -2.7829   -1.0827   -1.2956 O   0  0  0  0  0  0  0  0  0  0  0  0
   -4.5175   -0.5742    0.0633 O   0  0  0  0  0  0  0  0  0  0  0  0
    3.7201    2.2049   -1.1407 O   0  0  0  0  0  0  0  0  0  0  0  0
   -1.1392    0.6603   -0.2257 N   0  0  0  0  0  0  0  0  0  0  0  0
    2.3812    1.2604    0.5284 N   0  0  0  0  0  0  0  0  0  0  0  0
    1.2737    0.8306   -0.2857 C   0  0  1  0  0  0  0  0  0  0  0  0
    1.4783   -0.5860   -0.8398 C   0  0  0  0  0  0  0  0  0  0  0  0
   -0.0126    0.9695    0.5228 C   0  0  0  0  0  0  0  0  0  0  0  0
    1.5169   -1.6687    0.2412 C   0  0  0  0  0  0  0  0  0  0  0  0
   -2.4725    0.6871    0.3283 C   0  0  1  0  0  0  0  0  0  0  0  0
   -3.0915    2.0672    0.1666 C   0  0  0  0  0  0  0  0  0  0  0  0
   -3.3646   -0.3697   -0.3015 C   0  0  0  0  0  0  0  0  0  0  0  0
    3.4925    1.9033    0.0237 C   0  0  0  0  0  0  0  0  0  0  0  0
    1.7931   -4.2849    1.0128 C   0  0  0  0  0  0  0  0  0  0  0  0
    1.1980    1.5227   -1.1347 H   0  0  0  0  0  0  0  0  0  0  0  0
    2.4200   -0.6064   -1.4051 H   0  0  0  0  0  0  0  0  0  0  0  0
    0.6824   -0.8184   -1.5584 H   0  0  0  0  0  0  0  0  0  0  0  0
    0.5807   -1.6817    0.8075 H   0  0  0  0  0  0  0  0  0  0  0  0
    2.3417   -1.4816    0.9361 H   0  0  0  0  0  0  0  0  0  0  0  0
   -2.3981    0.4399    1.3940 H   0  0  0  0  0  0  0  0  0  0  0  0
   -1.0414    0.4519   -1.2148 H   0  0  0  0  0  0  0  0  0  0  0  0
    2.3530    1.0660    1.5255 H   0  0  0  0  0  0  0  0  0  0  0  0
   -4.0925    2.1057    0.6093 H   0  0  0  0  0  0  0  0  0  0  0  0
   -2.4770    2.8345    0.6496 H   0  0  0  0  0  0  0  0  0  0  0  0
   -3.1871    2.3349   -0.8920 H   0  0  0  0  0  0  0  0  0  0  0  0
    4.2069    2.1315    0.8318 H   0  0  0  0  0  0  0  0  0  0  0  0
    0.8533   -4.1784    1.5610 H   0  0  0  0  0  0  0  0  0  0  0  0
    2.6266   -3.9697    1.6457 H   0  0  0  0  0  0  0  0  0  0  0  0
    1.9293   -5.3397    0.7597 H   0  0  0  0  0  0  0  0  0  0  0  0
   -3.3913   -1.7556   -1.6689 H   0  0  0  0  0  0  0  0  0  0  0  0
  1 11  1  0  0  0  0
  1 16  1  0  0  0  0
  2 10  2  0  0  0  0
  3 14  1  0  0  0  0
  3 32  1  0  0  0  0
  4 14  2  0  0  0  0
  5 15  2  0  0  0  0
  6 10  1  0  0  0  0
  6 12  1  0  0  0  0
  6 23  1  0  0  0  0
  7  8  1  0  0  0  0
  7 15  1  0  0  0  0
  7 24  1  0  0  0  0
  8  9  1  0  0  0  0
  8 10  1  0  0  0  0
  8 17  1  0  0  0  0
  9 11  1  0  0  0  0
  9 18  1  0  0  0  0
  9 19  1  0  0  0  0
 11 20  1  0  0  0  0
 11 21  1  0  0  0  0
 12 13  1  0  0  0  0
 12 14  1  0  0  0  0
 12 22  1  0  0  0  0
 13 25  1  0  0  0  0
 13 26  1  0  0  0  0
 13 27  1  0  0  0  0
 15 28  1  0  0  0  0
 16 29  1  0  0  0  0
 16 30  1  0  0  0  0
 16 31  1  0  0  0  0
M  END
> <PUBCHEM_COMPOUND_CID>
4363

> <PUBCHEM_CONFORMER_RMSD>
1

> <PUBCHEM_CONFORMER_DIVERSEORDER>
1
72
905
180
854
471
536
421
116
34
37
345
154
42
104
119
735
817
645
901
688
141
897
146
248
566
190
823
114
565
377
698
485
641
742
304
7
699
40
468
450
220
205
17
594
416
555
285
254
11
153
177
737
33
107
622
73
612
113
125
746
486
888
306
836
87
395
794
126
514
48
265
108
51
32
131
500
279
891
62
670
92
27
673
829
414
313
592
53
607
628
191
206
8
68
472
442
880
5
23
362
3
74
287
15
548
137
293
678
111
155
433
44
342
353
590
711
806
839
18
614
710
215
75
658
446
529
258
626
775
261
103
31
589
2
550
29
186
209
26
385
758
4
69
50
392
61
24
256
257
20
476
907
810
102
45
270
13
326
451
332
12

> <PUBCHEM_MMFF94_PARTIAL_CHARGES>
18
1 -0.46
10 0.57
11 0.23
12 0.36
14 0.66
15 0.57
16 0.23
2 -0.57
23 0.37
24 0.37
28 0.06
3 -0.65
32 0.5
4 -0.57
5 -0.57
6 -0.73
7 -0.73
8 0.36

> <PUBCHEM_EFFECTIVE_ROTOR_COUNT>
9

> <PUBCHEM_PHARMACOPHORE_FEATURES>
8
1 16 hydrophobe
1 2 acceptor
1 3 acceptor
1 4 acceptor
1 5 acceptor
1 6 donor
1 7 donor
3 3 4 14 anion

> <PUBCHEM_HEAVY_ATOM_COUNT>
16

> <PUBCHEM_ATOM_DEF_STEREO_COUNT>
0

> <PUBCHEM_ATOM_UDEF_STEREO_COUNT>
2

> <PUBCHEM_BOND_DEF_STEREO_COUNT>
0

> <PUBCHEM_BOND_UDEF_STEREO_COUNT>
0

> <PUBCHEM_ISOTOPIC_ATOM_COUNT>
0

> <PUBCHEM_COMPONENT_COUNT>
1

> <PUBCHEM_CACTVS_TAUTO_COUNT>
4

> <PUBCHEM_CONFORMER_ID>
0000110B00000001

> <PUBCHEM_MMFF94_ENERGY>
25.4155

> <PUBCHEM_FEATURE_SELFOVERLAP>
40.655

> <PUBCHEM_SHAPE_FINGERPRINT>
124424 183 8574450719834615149
12553582 1 17688585382789814622
12839892 36 18339100219377939018
13004483 165 17261320713634377546
13052359 8 17980200786429837282
15375462 189 18113337501152157315
15502722 9 18412541037465984892
20291156 8 17906733953086815947
20567600 347 18341331093889613010
20645476 183 18196367014581776716
20645477 70 18334860558497128767
20671657 53 17835240421419314314
21501502 16 18261957452823344649
21650355 55 17257378973170538906
2255824 54 18411977005381583454
23366157 5 18200307852680229814
23419403 2 16745981769895923680
23532345 88 18339082712642665255
23559900 14 18191033510638418600
23598291 2 18116138042824732621
257057 1 17764310935139010378
2871803 45 18043258950750541989
314173 41 17905600356624822767
458136 41 18339625785724901976
5902787 121 18048599510185885335
7364860 26 18335983181059061566
81228 2 17326912676879024754
81539 233 18342462508486614254

> <PUBCHEM_SHAPE_MULTIPOLES>
299.68
6.64
4.08
1.08
5.58
3.46
0.1
-0.19
-0.75
-5.67
0.44
-0.23
0.08
-1.19

> <PUBCHEM_SHAPE_SELFOVERLAP>
560.269

> <PUBCHEM_SHAPE_VOLUME>
188.1

> <PUBCHEM_COORDINATE_TYPE>
2
5
10

$$$$

