12135
  -OEChem-06261206343D

 20 20  0     0  0  0  0  0  0999 V2000
    3.4447   -1.1420   -0.2501 O   0  0  0  0  0  0  0  0  0  0  0  0
    3.9314    1.0448    0.2733 N   0  0  0  0  0  0  0  0  0  0  0  0
   -0.7597   -0.2306   -0.0589 C   0  0  0  0  0  0  0  0  0  0  0  0
   -1.2218    1.0797   -0.1820 C   0  0  0  0  0  0  0  0  0  0  0  0
   -1.6658   -1.2757    0.1208 C   0  0  0  0  0  0  0  0  0  0  0  0
    0.6672   -0.5072   -0.1184 C   0  0  0  0  0  0  0  0  0  0  0  0
   -2.5901    1.3450   -0.1254 C   0  0  0  0  0  0  0  0  0  0  0  0
   -3.0341   -1.0105    0.1772 C   0  0  0  0  0  0  0  0  0  0  0  0
   -3.4962    0.2998    0.0541 C   0  0  0  0  0  0  0  0  0  0  0  0
    1.6472    0.3995    0.0936 C   0  0  0  0  0  0  0  0  0  0  0  0
    3.0771   -0.0028    0.0157 C   0  0  0  0  0  0  0  0  0  0  0  0
   -0.5562    1.9225   -0.3436 H   0  0  0  0  0  0  0  0  0  0  0  0
   -1.3245   -2.3033    0.2199 H   0  0  0  0  0  0  0  0  0  0  0  0
    0.9337   -1.5378   -0.3430 H   0  0  0  0  0  0  0  0  0  0  0  0
   -2.9509    2.3644   -0.2259 H   0  0  0  0  0  0  0  0  0  0  0  0
   -3.7399   -1.8242    0.3171 H   0  0  0  0  0  0  0  0  0  0  0  0
   -4.5616    0.5062    0.0970 H   0  0  0  0  0  0  0  0  0  0  0  0
    1.4402    1.4333    0.3468 H   0  0  0  0  0  0  0  0  0  0  0  0
    3.6078    1.9821    0.4909 H   0  0  0  0  0  0  0  0  0  0  0  0
    4.9369    0.9097    0.2529 H   0  0  0  0  0  0  0  0  0  0  0  0
  1 11  2  0  0  0  0
  2 11  1  0  0  0  0
  2 19  1  0  0  0  0
  2 20  1  0  0  0  0
  3  4  2  0  0  0  0
  3  5  1  0  0  0  0
  3  6  1  0  0  0  0
  4  7  1  0  0  0  0
  4 12  1  0  0  0  0
  5  8  2  0  0  0  0
  5 13  1  0  0  0  0
  6 10  2  0  0  0  0
  6 14  1  0  0  0  0
  7  9  2  0  0  0  0
  7 15  1  0  0  0  0
  8  9  1  0  0  0  0
  8 16  1  0  0  0  0
  9 17  1  0  0  0  0
 10 11  1  0  0  0  0
 10 18  1  0  0  0  0
M  END
> <PUBCHEM_COMPOUND_CID>
12135

> <PUBCHEM_CONFORMER_RMSD>
0.4

> <PUBCHEM_CONFORMER_DIVERSEORDER>
1
2
3

> <PUBCHEM_MMFF94_PARTIAL_CHARGES>
20
1 -0.57
10 -0.14
11 0.62
12 0.15
13 0.15
14 0.15
15 0.15
16 0.15
17 0.15
18 0.15
19 0.37
2 -0.8
20 0.37
3 0.03
4 -0.15
5 -0.15
6 -0.18
7 -0.15
8 -0.15
9 -0.15

> <PUBCHEM_EFFECTIVE_ROTOR_COUNT>
2

> <PUBCHEM_PHARMACOPHORE_FEATURES>
3
1 1 acceptor
1 2 donor
6 3 4 5 7 8 9 rings

> <PUBCHEM_HEAVY_ATOM_COUNT>
11

> <PUBCHEM_ATOM_DEF_STEREO_COUNT>
0

> <PUBCHEM_ATOM_UDEF_STEREO_COUNT>
0

> <PUBCHEM_BOND_DEF_STEREO_COUNT>
0

> <PUBCHEM_BOND_UDEF_STEREO_COUNT>
1

> <PUBCHEM_ISOTOPIC_ATOM_COUNT>
0

> <PUBCHEM_COMPONENT_COUNT>
1

> <PUBCHEM_CACTVS_TAUTO_COUNT>
2

> <PUBCHEM_CONFORMER_ID>
00002F6700000001

> <PUBCHEM_MMFF94_ENERGY>
28.0912

> <PUBCHEM_FEATURE_SELFOVERLAP>
15.223

> <PUBCHEM_SHAPE_FINGERPRINT>
10608611 8 18409171029979506784
11132069 177 18343023285060184405
12032990 46 18412537700313559451
12932764 1 17489595596843524900
13024252 1 15698281114590479001
14144814 61 18343022211370926162
14325111 11 18410575102038126932
15219456 202 18260542367961733926
18186145 218 18335133237132728016
190213 19 17704071793676334846
20201158 50 18259983798922342695
20279233 1 18260546727691084406
20528008 55 18409453578718828693
20645464 45 18187639237076990799
20645477 70 17968375749236944110
20871998 184 18261669264776048279
23402539 116 18335147479734905375
23559900 14 18336551603196287986
3248919 1 17203602675409772770
6333449 129 18409169913561926751

> <PUBCHEM_SHAPE_MULTIPOLES>
215.52
6.85
1.36
0.62
4.65
0.03
0
0.39
0.28
-0.45
-0.01
-0.03
0
0.28

> <PUBCHEM_SHAPE_SELFOVERLAP>
445.727

> <PUBCHEM_SHAPE_VOLUME>
123.2

> <PUBCHEM_COORDINATE_TYPE>
2
5
10

$$$$

