8190
  -OEChem-06261202382D

 30 29  0     0  0  0  0  0  0999 V2000
    7.7331    0.2500    0.0000 O   0  0  0  0  0  0  0  0  0  0  0  0
    5.1350   -0.2500    0.0000 O   0  0  0  0  0  0  0  0  0  0  0  0
   10.3312   -0.2500    0.0000 O   0  0  0  0  0  0  0  0  0  0  0  0
    2.5369    0.2500    0.0000 O   0  0  0  0  0  0  0  0  0  0  0  0
    6.8671   -0.2500    0.0000 C   0  0  0  0  0  0  0  0  0  0  0  0
    8.5991   -0.2500    0.0000 C   0  0  0  0  0  0  0  0  0  0  0  0
    6.0010    0.2500    0.0000 C   0  0  0  0  0  0  0  0  0  0  0  0
    9.4651    0.2500    0.0000 C   0  0  0  0  0  0  0  0  0  0  0  0
    4.2690    0.2500    0.0000 C   0  0  0  0  0  0  0  0  0  0  0  0
   11.1972    0.2500    0.0000 C   0  0  0  0  0  0  0  0  0  0  0  0
    3.4030   -0.2500    0.0000 C   0  0  0  0  0  0  0  0  0  0  0  0
   12.0632   -0.2500    0.0000 C   0  0  0  0  0  0  0  0  0  0  0  0
    6.4685   -0.7249    0.0000 H   0  0  0  0  0  0  0  0  0  0  0  0
    7.2656   -0.7249    0.0000 H   0  0  0  0  0  0  0  0  0  0  0  0
    8.2006   -0.7249    0.0000 H   0  0  0  0  0  0  0  0  0  0  0  0
    8.9976   -0.7249    0.0000 H   0  0  0  0  0  0  0  0  0  0  0  0
    6.3996    0.7249    0.0000 H   0  0  0  0  0  0  0  0  0  0  0  0
    5.6025    0.7249    0.0000 H   0  0  0  0  0  0  0  0  0  0  0  0
    9.8637    0.7249    0.0000 H   0  0  0  0  0  0  0  0  0  0  0  0
    9.0666    0.7249    0.0000 H   0  0  0  0  0  0  0  0  0  0  0  0
    4.6675    0.7249    0.0000 H   0  0  0  0  0  0  0  0  0  0  0  0
    3.8705    0.7249    0.0000 H   0  0  0  0  0  0  0  0  0  0  0  0
   11.5957    0.7249    0.0000 H   0  0  0  0  0  0  0  0  0  0  0  0
   10.7987    0.7249    0.0000 H   0  0  0  0  0  0  0  0  0  0  0  0
    3.0044   -0.7249    0.0000 H   0  0  0  0  0  0  0  0  0  0  0  0
    3.8015   -0.7249    0.0000 H   0  0  0  0  0  0  0  0  0  0  0  0
   11.7532   -0.7869    0.0000 H   0  0  0  0  0  0  0  0  0  0  0  0
   12.6002   -0.5600    0.0000 H   0  0  0  0  0  0  0  0  0  0  0  0
   12.3732    0.2869    0.0000 H   0  0  0  0  0  0  0  0  0  0  0  0
    2.0000   -0.0600    0.0000 H   0  0  0  0  0  0  0  0  0  0  0  0
  1  5  1  0  0  0  0
  1  6  1  0  0  0  0
  2  7  1  0  0  0  0
  2  9  1  0  0  0  0
  3  8  1  0  0  0  0
  3 10  1  0  0  0  0
  4 11  1  0  0  0  0
  4 30  1  0  0  0  0
  5  7  1  0  0  0  0
  5 13  1  0  0  0  0
  5 14  1  0  0  0  0
  6  8  1  0  0  0  0
  6 15  1  0  0  0  0
  6 16  1  0  0  0  0
  7 17  1  0  0  0  0
  7 18  1  0  0  0  0
  8 19  1  0  0  0  0
  8 20  1  0  0  0  0
  9 11  1  0  0  0  0
  9 21  1  0  0  0  0
  9 22  1  0  0  0  0
 10 12  1  0  0  0  0
 10 23  1  0  0  0  0
 10 24  1  0  0  0  0
 11 25  1  0  0  0  0
 11 26  1  0  0  0  0
 12 27  1  0  0  0  0
 12 28  1  0  0  0  0
 12 29  1  0  0  0  0
M  END
> <PUBCHEM_COMPOUND_CID>
8190

> <PUBCHEM_COMPOUND_CANONICALIZED>
1

> <PUBCHEM_CACTVS_COMPLEXITY>
77.5

> <PUBCHEM_CACTVS_HBOND_ACCEPTOR>
4

> <PUBCHEM_CACTVS_HBOND_DONOR>
1

> <PUBCHEM_CACTVS_ROTATABLE_BOND>
9

> <PUBCHEM_CACTVS_SUBSKEYS>
AAADceBwOAAAAAAAAAAAAAAAAAAAAAAAAAAAAAAAAAAAAAAAAAAAGgAACAAAAACggAICAAAABgAAAAAAAAAAAAAAAAAAAAAAAAABEAAAAAACAAAAAAADAAAAAAAAAAAAAAAAAAAAAAAAAAAAAAAAAAAAAA==

> <PUBCHEM_IUPAC_OPENEYE_NAME>
2-[2-(2-ethoxyethoxy)ethoxy]ethanol

> <PUBCHEM_IUPAC_CAS_NAME>
2-[2-(2-ethoxyethoxy)ethoxy]ethanol

> <PUBCHEM_IUPAC_NAME>
2-[2-(2-ethoxyethoxy)ethoxy]ethanol

> <PUBCHEM_IUPAC_SYSTEMATIC_NAME>
2-[2-(2-ethoxyethoxy)ethoxy]ethanol

> <PUBCHEM_IUPAC_TRADITIONAL_NAME>
2-[2-(2-ethoxyethoxy)ethoxy]ethanol

> <PUBCHEM_IUPAC_INCHI>
InChI=1S/C8H18O4/c1-2-10-5-6-12-8-7-11-4-3-9/h9H,2-8H2,1H3

> <PUBCHEM_IUPAC_INCHIKEY>
WFSMVVDJSNMRAR-UHFFFAOYSA-N

> <PUBCHEM_XLOGP3>
-0.7

> <PUBCHEM_EXACT_MASS>
178.120509

> <PUBCHEM_MOLECULAR_FORMULA>
C8H18O4

> <PUBCHEM_MOLECULAR_WEIGHT>
178.22612

> <PUBCHEM_OPENEYE_CAN_SMILES>
CCOCCOCCOCCO

> <PUBCHEM_OPENEYE_ISO_SMILES>
CCOCCOCCOCCO

> <PUBCHEM_CACTVS_TPSA>
47.9

> <PUBCHEM_MONOISOTOPIC_WEIGHT>
178.120509

> <PUBCHEM_TOTAL_CHARGE>
0

> <PUBCHEM_HEAVY_ATOM_COUNT>
12

> <PUBCHEM_ATOM_DEF_STEREO_COUNT>
0

> <PUBCHEM_ATOM_UDEF_STEREO_COUNT>
0

> <PUBCHEM_BOND_DEF_STEREO_COUNT>
0

> <PUBCHEM_BOND_UDEF_STEREO_COUNT>
0

> <PUBCHEM_ISOTOPIC_ATOM_COUNT>
0

> <PUBCHEM_COMPONENT_COUNT>
1

> <PUBCHEM_CACTVS_TAUTO_COUNT>
1

> <PUBCHEM_COORDINATE_TYPE>
1
5
255

$$$$

