8889
  -OEChem-06261203132D

 49 48  0     0  0  0  0  0  0999 V2000
    2.5369   -0.5600    0.0000 O   0  0  0  0  0  0  0  0  0  0  0  0
    5.1350   -1.0600    0.0000 O   0  0  0  0  0  0  0  0  0  0  0  0
    4.2690    0.4400    0.0000 N   0  0  0  0  0  0  0  0  0  0  0  0
    9.4651    0.4400    0.0000 C   0  0  0  0  0  0  0  0  0  0  0  0
   10.3312   -0.0600    0.0000 C   0  0  0  0  0  0  0  0  0  0  0  0
    8.5991   -0.0600    0.0000 C   0  0  0  0  0  0  0  0  0  0  0  0
   11.1972    0.4400    0.0000 C   0  0  0  0  0  0  0  0  0  0  0  0
    7.7331    0.4400    0.0000 C   0  0  0  0  0  0  0  0  0  0  0  0
   12.0632   -0.0600    0.0000 C   0  0  0  0  0  0  0  0  0  0  0  0
    6.8671   -0.0600    0.0000 C   0  0  0  0  0  0  0  0  0  0  0  0
   12.9292    0.4400    0.0000 C   0  0  0  0  0  0  0  0  0  0  0  0
    6.0010    0.4400    0.0000 C   0  0  0  0  0  0  0  0  0  0  0  0
   13.7953   -0.0600    0.0000 C   0  0  0  0  0  0  0  0  0  0  0  0
    5.1350   -0.0600    0.0000 C   0  0  0  0  0  0  0  0  0  0  0  0
    3.4030   -0.0600    0.0000 C   0  0  0  0  0  0  0  0  0  0  0  0
   14.6613    0.4400    0.0000 C   0  0  0  0  0  0  0  0  0  0  0  0
    2.9030    0.8060    0.0000 C   0  0  0  0  0  0  0  0  0  0  0  0
    3.9030   -0.9260    0.0000 C   0  0  0  0  0  0  0  0  0  0  0  0
    9.8637    0.9149    0.0000 H   0  0  0  0  0  0  0  0  0  0  0  0
    9.0666    0.9149    0.0000 H   0  0  0  0  0  0  0  0  0  0  0  0
    9.9326   -0.5349    0.0000 H   0  0  0  0  0  0  0  0  0  0  0  0
   10.7297   -0.5349    0.0000 H   0  0  0  0  0  0  0  0  0  0  0  0
    8.2006   -0.5349    0.0000 H   0  0  0  0  0  0  0  0  0  0  0  0
    8.9976   -0.5349    0.0000 H   0  0  0  0  0  0  0  0  0  0  0  0
   11.5957    0.9149    0.0000 H   0  0  0  0  0  0  0  0  0  0  0  0
   10.7987    0.9149    0.0000 H   0  0  0  0  0  0  0  0  0  0  0  0
    8.1316    0.9149    0.0000 H   0  0  0  0  0  0  0  0  0  0  0  0
    7.3346    0.9149    0.0000 H   0  0  0  0  0  0  0  0  0  0  0  0
   11.6647   -0.5349    0.0000 H   0  0  0  0  0  0  0  0  0  0  0  0
   12.4617   -0.5349    0.0000 H   0  0  0  0  0  0  0  0  0  0  0  0
    6.4685   -0.5349    0.0000 H   0  0  0  0  0  0  0  0  0  0  0  0
    7.2656   -0.5349    0.0000 H   0  0  0  0  0  0  0  0  0  0  0  0
   13.3278    0.9149    0.0000 H   0  0  0  0  0  0  0  0  0  0  0  0
   12.5307    0.9149    0.0000 H   0  0  0  0  0  0  0  0  0  0  0  0
    6.3996    0.9149    0.0000 H   0  0  0  0  0  0  0  0  0  0  0  0
    5.6025    0.9149    0.0000 H   0  0  0  0  0  0  0  0  0  0  0  0
   13.3967   -0.5349    0.0000 H   0  0  0  0  0  0  0  0  0  0  0  0
   14.1938   -0.5349    0.0000 H   0  0  0  0  0  0  0  0  0  0  0  0
    4.2690    1.0600    0.0000 H   0  0  0  0  0  0  0  0  0  0  0  0
   14.9713   -0.0969    0.0000 H   0  0  0  0  0  0  0  0  0  0  0  0
   15.1982    0.7500    0.0000 H   0  0  0  0  0  0  0  0  0  0  0  0
   14.3513    0.9769    0.0000 H   0  0  0  0  0  0  0  0  0  0  0  0
    3.3660   -1.2360    0.0000 H   0  0  0  0  0  0  0  0  0  0  0  0
    4.2130   -1.4630    0.0000 H   0  0  0  0  0  0  0  0  0  0  0  0
    4.4399   -0.6160    0.0000 H   0  0  0  0  0  0  0  0  0  0  0  0
    3.4399    1.1160    0.0000 H   0  0  0  0  0  0  0  0  0  0  0  0
    2.5930    1.3430    0.0000 H   0  0  0  0  0  0  0  0  0  0  0  0
    2.3660    0.4960    0.0000 H   0  0  0  0  0  0  0  0  0  0  0  0
    2.0000   -0.2500    0.0000 H   0  0  0  0  0  0  0  0  0  0  0  0
  1 15  1  0  0  0  0
  1 49  1  0  0  0  0
  2 14  2  0  0  0  0
  3 14  1  0  0  0  0
  3 15  1  0  0  0  0
  3 39  1  0  0  0  0
  4  5  1  0  0  0  0
  4  6  1  0  0  0  0
  4 19  1  0  0  0  0
  4 20  1  0  0  0  0
  5  7  1  0  0  0  0
  5 21  1  0  0  0  0
  5 22  1  0  0  0  0
  6  8  1  0  0  0  0
  6 23  1  0  0  0  0
  6 24  1  0  0  0  0
  7  9  1  0  0  0  0
  7 25  1  0  0  0  0
  7 26  1  0  0  0  0
  8 10  1  0  0  0  0
  8 27  1  0  0  0  0
  8 28  1  0  0  0  0
  9 11  1  0  0  0  0
  9 29  1  0  0  0  0
  9 30  1  0  0  0  0
 10 12  1  0  0  0  0
 10 31  1  0  0  0  0
 10 32  1  0  0  0  0
 11 13  1  0  0  0  0
 11 33  1  0  0  0  0
 11 34  1  0  0  0  0
 12 14  1  0  0  0  0
 12 35  1  0  0  0  0
 12 36  1  0  0  0  0
 13 16  1  0  0  0  0
 13 37  1  0  0  0  0
 13 38  1  0  0  0  0
 15 17  1  0  0  0  0
 15 18  1  0  0  0  0
 16 40  1  0  0  0  0
 16 41  1  0  0  0  0
 16 42  1  0  0  0  0
 17 46  1  0  0  0  0
 17 47  1  0  0  0  0
 17 48  1  0  0  0  0
 18 43  1  0  0  0  0
 18 44  1  0  0  0  0
 18 45  1  0  0  0  0
M  END
> <PUBCHEM_COMPOUND_CID>
8889

> <PUBCHEM_COMPOUND_CANONICALIZED>
1

> <PUBCHEM_CACTVS_COMPLEXITY>
215

> <PUBCHEM_CACTVS_HBOND_ACCEPTOR>
2

> <PUBCHEM_CACTVS_HBOND_DONOR>
2

> <PUBCHEM_CACTVS_ROTATABLE_BOND>
11

> <PUBCHEM_CACTVS_SUBSKEYS>
AAADceByMAAAAAAAAAAAAAAAAAAAAAAAAAAAAAAAAAAAAAAAAAAAHgAQCAAACAyBgAACAALAAgAIAAEQEAAAAAAAAAAAAAEAAAEAABIAgAAEAAAAFACAAAEYiICAAAAAAAAAAAAAAAAAAAAAAAAAAAAAAA==

> <PUBCHEM_IUPAC_OPENEYE_NAME>
N-(1-hydroxy-1-methyl-ethyl)dodecanamide

> <PUBCHEM_IUPAC_CAS_NAME>
N-(2-hydroxypropan-2-yl)dodecanamide

> <PUBCHEM_IUPAC_NAME>
N-(2-hydroxypropan-2-yl)dodecanamide

> <PUBCHEM_IUPAC_SYSTEMATIC_NAME>
N-(2-oxidanylpropan-2-yl)dodecanamide

> <PUBCHEM_IUPAC_TRADITIONAL_NAME>
N-(1-hydroxy-1-methyl-ethyl)lauramide

> <PUBCHEM_IUPAC_INCHI>
InChI=1S/C15H31NO2/c1-4-5-6-7-8-9-10-11-12-13-14(17)16-15(2,3)18/h18H,4-13H2,1-3H3,(H,16,17)

> <PUBCHEM_IUPAC_INCHIKEY>
JHBUNKKNHQVQFT-UHFFFAOYSA-N

> <PUBCHEM_XLOGP3_AA>
4.7

> <PUBCHEM_EXACT_MASS>
257.235479

> <PUBCHEM_MOLECULAR_FORMULA>
C15H31NO2

> <PUBCHEM_MOLECULAR_WEIGHT>
257.41214

> <PUBCHEM_OPENEYE_CAN_SMILES>
CCCCCCCCCCCC(=O)NC(C)(C)O

> <PUBCHEM_OPENEYE_ISO_SMILES>
CCCCCCCCCCCC(=O)NC(C)(C)O

> <PUBCHEM_CACTVS_TPSA>
49.3

> <PUBCHEM_MONOISOTOPIC_WEIGHT>
257.235479

> <PUBCHEM_TOTAL_CHARGE>
0

> <PUBCHEM_HEAVY_ATOM_COUNT>
18

> <PUBCHEM_ATOM_DEF_STEREO_COUNT>
0

> <PUBCHEM_ATOM_UDEF_STEREO_COUNT>
0

> <PUBCHEM_BOND_DEF_STEREO_COUNT>
0

> <PUBCHEM_BOND_UDEF_STEREO_COUNT>
0

> <PUBCHEM_ISOTOPIC_ATOM_COUNT>
0

> <PUBCHEM_COMPONENT_COUNT>
1

> <PUBCHEM_CACTVS_TAUTO_COUNT>
2

> <PUBCHEM_COORDINATE_TYPE>
1
5
255

$$$$

