8664
  -OEChem-06261202592D

 20 19  0     0  0  0  0  0  0999 V2000
    5.3429    4.1200    0.0000 O   0  0  0  0  0  0  0  0  0  0  0  0
    3.6108    5.1200    0.0000 O   0  0  0  0  0  0  0  0  0  0  0  0
    4.4768    3.6200    0.0000 N   0  0  0  0  0  0  0  0  0  0  0  0
    3.6108    4.1200    0.0000 N   0  0  0  0  0  0  0  0  0  0  0  0
    0.5369    2.7150    0.0000 N   0  0  0  0  0  0  0  0  0  0  0  0
    4.4768    2.6200    0.0000 C   0  0  0  0  0  0  0  0  0  0  0  0
    3.6108    2.1200    0.0000 C   0  0  0  0  0  0  0  0  0  0  0  0
    5.3429    2.1200    0.0000 C   0  0  0  0  0  0  0  0  0  0  0  0
    3.6108    1.1200    0.0000 C   0  0  0  0  0  0  0  0  0  0  0  0
    5.3429    1.1200    0.0000 C   0  0  0  0  0  0  0  0  0  0  0  0
    4.4768    0.6200    0.0000 C   0  0  0  0  0  0  0  0  0  0  0  0
    3.0739    2.4300    0.0000 H   0  0  0  0  0  0  0  0  0  0  0  0
    5.8798    2.4300    0.0000 H   0  0  0  0  0  0  0  0  0  0  0  0
    3.0739    0.8100    0.0000 H   0  0  0  0  0  0  0  0  0  0  0  0
    5.8798    0.8100    0.0000 H   0  0  0  0  0  0  0  0  0  0  0  0
    4.4768    0.0000    0.0000 H   0  0  0  0  0  0  0  0  0  0  0  0
    5.3429    4.7400    0.0000 H   0  0  0  0  0  0  0  0  0  0  0  0
    1.0739    3.0250    0.0000 H   0  0  0  0  0  0  0  0  0  0  0  0
    0.0000    3.0250    0.0000 H   0  0  0  0  0  0  0  0  0  0  0  0
    0.5369    2.0950    0.0000 H   0  0  0  0  0  0  0  0  0  0  0  0
  1  3  1  0  0  0  0
  1 17  1  0  0  0  0
  2  4  2  0  0  0  0
  3  4  1  0  0  0  0
  3  6  1  0  0  0  0
  5 18  1  0  0  0  0
  5 19  1  0  0  0  0
  5 20  1  0  0  0  0
  6  7  2  0  0  0  0
  6  8  1  0  0  0  0
  7  9  1  0  0  0  0
  7 12  1  0  0  0  0
  8 10  2  0  0  0  0
  8 13  1  0  0  0  0
  9 11  2  0  0  0  0
  9 14  1  0  0  0  0
 10 11  1  0  0  0  0
 10 15  1  0  0  0  0
 11 16  1  0  0  0  0
M  END
> <PUBCHEM_COMPOUND_CID>
8664

> <PUBCHEM_COMPOUND_CANONICALIZED>
1

> <PUBCHEM_CACTVS_COMPLEXITY>
112

> <PUBCHEM_CACTVS_HBOND_ACCEPTOR>
5

> <PUBCHEM_CACTVS_HBOND_DONOR>
2

> <PUBCHEM_CACTVS_ROTATABLE_BOND>
1

> <PUBCHEM_CACTVS_SUBSKEYS>
AAADccBjMAAAAAAAAAAAAAAAAAAAAAAAAAAwAAAAAAAAAAABAAAAHAAcCAAACAiBEAAwwIAQAACBACRCQACCBAAgAgA4iAAAZIgIICKAkZGAIABggAAIyAcQAAAAAAAAAAAAAAAAAAAAAAAAAAAAAAAAAA==

> <PUBCHEM_IUPAC_OPENEYE_NAME>
ammonia; N-hydroxy-N-phenyl-nitrous amide

> <PUBCHEM_IUPAC_CAS_NAME>
ammonia; N-hydroxy-N-phenylnitrous amide

> <PUBCHEM_IUPAC_NAME>
azane; N-hydroxy-N-phenylnitrous amide

> <PUBCHEM_IUPAC_SYSTEMATIC_NAME>
azane; N-oxidanyl-N-phenyl-nitrous amide

> <PUBCHEM_IUPAC_TRADITIONAL_NAME>
ammonia; N-hydroxy-N-phenyl-nitrous amide

> <PUBCHEM_IUPAC_INCHI>
InChI=1S/C6H6N2O2.H3N/c9-7-8(10)6-4-2-1-3-5-6;/h1-5,10H;1H3

> <PUBCHEM_IUPAC_INCHIKEY>
NJVHCUNZAMFQNA-UHFFFAOYSA-N

> <PUBCHEM_EXACT_MASS>
155.069477

> <PUBCHEM_MOLECULAR_FORMULA>
C6H9N3O2

> <PUBCHEM_MOLECULAR_WEIGHT>
155.15456

> <PUBCHEM_OPENEYE_CAN_SMILES>
C1=CC=C(C=C1)N(N=O)O.N

> <PUBCHEM_OPENEYE_ISO_SMILES>
C1=CC=C(C=C1)N(N=O)O.N

> <PUBCHEM_CACTVS_TPSA>
53.9

> <PUBCHEM_MONOISOTOPIC_WEIGHT>
155.069477

> <PUBCHEM_TOTAL_CHARGE>
0

> <PUBCHEM_HEAVY_ATOM_COUNT>
11

> <PUBCHEM_ATOM_DEF_STEREO_COUNT>
0

> <PUBCHEM_ATOM_UDEF_STEREO_COUNT>
0

> <PUBCHEM_BOND_DEF_STEREO_COUNT>
0

> <PUBCHEM_BOND_UDEF_STEREO_COUNT>
0

> <PUBCHEM_ISOTOPIC_ATOM_COUNT>
0

> <PUBCHEM_COMPONENT_COUNT>
2

> <PUBCHEM_CACTVS_TAUTO_COUNT>
1

> <PUBCHEM_COORDINATE_TYPE>
1
5
255

> <PUBCHEM_BONDANNOTATIONS>
10  11  8
6  7  8
6  8  8
7  9  8
8  10  8
9  11  8

$$$$

