4210
  -OEChem-06251223573D

 38 40  0     1  0  0  0  0  0999 V2000
   -2.9207    0.7182    0.4478 O   0  0  0  0  0  0  0  0  0  0  0  0
    3.5554   -1.1334    0.2602 O   0  0  0  0  0  0  0  0  0  0  0  0
   -0.1398    2.7610   -0.3606 O   0  0  0  0  0  0  0  0  0  0  0  0
   -4.6402    1.6673   -0.7532 O   0  0  0  0  0  0  0  0  0  0  0  0
    0.6785   -1.6915   -0.2653 N   0  0  0  0  0  0  0  0  0  0  0  0
   -0.6109   -4.1953    1.2588 N   0  0  0  0  0  0  0  0  0  0  0  0
    2.4110    3.5278    0.1215 N   0  0  0  0  0  0  0  0  0  0  0  0
   -4.7341    1.4815    1.5368 N   0  0  0  0  0  0  0  0  0  0  0  0
   -0.6512   -1.5063   -0.5068 C   0  0  0  0  0  0  0  0  0  0  0  0
   -0.3015   -3.8139   -0.1214 C   0  0  2  0  0  0  0  0  0  0  0  0
    1.0636   -3.0891   -0.2027 C   0  0  0  0  0  0  0  0  0  0  0  0
   -1.3554   -2.7972   -0.6507 C   0  0  0  0  0  0  0  0  0  0  0  0
    1.3225   -0.5119   -0.1325 C   0  0  0  0  0  0  0  0  0  0  0  0
   -0.8947   -0.1582   -0.5347 C   0  0  0  0  0  0  0  0  0  0  0  0
    0.3659    0.4741   -0.2950 C   0  0  0  0  0  0  0  0  0  0  0  0
    2.7087   -0.2559    0.1219 C   0  0  0  0  0  0  0  0  0  0  0  0
   -2.1981    0.4928   -0.7663 C   0  0  0  0  0  0  0  0  0  0  0  0
    0.6966    1.8762   -0.2169 C   0  0  0  0  0  0  0  0  0  0  0  0
    3.0827    1.2058    0.2113 C   0  0  0  0  0  0  0  0  0  0  0  0
    2.1557    2.1830    0.0554 C   0  0  0  0  0  0  0  0  0  0  0  0
    4.5446    1.4462    0.4821 C   0  0  0  0  0  0  0  0  0  0  0  0
   -4.1387    1.3185    0.3103 C   0  0  0  0  0  0  0  0  0  0  0  0
   -0.2972   -4.7256   -0.7288 H   0  0  0  0  0  0  0  0  0  0  0  0
    1.7113   -3.2510    0.6633 H   0  0  0  0  0  0  0  0  0  0  0  0
    1.5934   -3.3238   -1.1312 H   0  0  0  0  0  0  0  0  0  0  0  0
   -2.2972   -2.8263   -0.0940 H   0  0  0  0  0  0  0  0  0  0  0  0
   -1.5702   -2.9932   -1.7071 H   0  0  0  0  0  0  0  0  0  0  0  0
   -2.0648    1.4453   -1.2915 H   0  0  0  0  0  0  0  0  0  0  0  0
   -2.8086   -0.1475   -1.4168 H   0  0  0  0  0  0  0  0  0  0  0  0
    0.0847   -4.8616    1.5917 H   0  0  0  0  0  0  0  0  0  0  0  0
   -1.5083   -4.6774    1.2861 H   0  0  0  0  0  0  0  0  0  0  0  0
    4.8109    2.5035    0.5474 H   0  0  0  0  0  0  0  0  0  0  0  0
    5.1533    1.0094   -0.3171 H   0  0  0  0  0  0  0  0  0  0  0  0
    4.8340    0.9819    1.4311 H   0  0  0  0  0  0  0  0  0  0  0  0
    1.6533    4.1870   -0.0084 H   0  0  0  0  0  0  0  0  0  0  0  0
    3.3437    3.8747    0.2972 H   0  0  0  0  0  0  0  0  0  0  0  0
   -4.2783    1.1760    2.3901 H   0  0  0  0  0  0  0  0  0  0  0  0
   -5.6480    1.9124    1.6274 H   0  0  0  0  0  0  0  0  0  0  0  0
  1 17  1  0  0  0  0
  1 22  1  0  0  0  0
  2 16  2  0  0  0  0
  3 18  2  0  0  0  0
  4 22  2  0  0  0  0
  5  9  1  0  0  0  0
  5 11  1  0  0  0  0
  5 13  1  0  0  0  0
  6 10  1  0  0  0  0
  6 30  1  0  0  0  0
  6 31  1  0  0  0  0
  7 20  1  0  0  0  0
  7 35  1  0  0  0  0
  7 36  1  0  0  0  0
  8 22  1  0  0  0  0
  8 37  1  0  0  0  0
  8 38  1  0  0  0  0
  9 12  1  0  0  0  0
  9 14  2  0  0  0  0
 10 11  1  0  0  0  0
 10 12  1  0  0  0  0
 10 23  1  0  0  0  0
 11 24  1  0  0  0  0
 11 25  1  0  0  0  0
 12 26  1  0  0  0  0
 12 27  1  0  0  0  0
 13 15  2  0  0  0  0
 13 16  1  0  0  0  0
 14 15  1  0  0  0  0
 14 17  1  0  0  0  0
 15 18  1  0  0  0  0
 16 19  1  0  0  0  0
 17 28  1  0  0  0  0
 17 29  1  0  0  0  0
 18 20  1  0  0  0  0
 19 20  2  0  0  0  0
 19 21  1  0  0  0  0
 21 32  1  0  0  0  0
 21 33  1  0  0  0  0
 21 34  1  0  0  0  0
M  END
> <PUBCHEM_COMPOUND_CID>
4210

> <PUBCHEM_CONFORMER_RMSD>
0.6

> <PUBCHEM_CONFORMER_DIVERSEORDER>
1
23
20
14
6
24
2
11
16
21
19
3
17
5
8
10
7
13
15
9
18
22
4
12

> <PUBCHEM_MMFF94_PARTIAL_CHARGES>
28
1 -0.43
10 0.27
11 0.26
12 0.18
13 -0.24
14 -0.18
15 -0.09
16 0.64
17 0.46
18 0.64
19 -0.12
2 -0.57
20 0.11
21 0.14
22 0.78
3 -0.57
30 0.36
31 0.36
35 0.4
36 0.4
37 0.37
38 0.37
4 -0.57
5 0.05
6 -0.99
7 -0.9
8 -0.8
9 -0.33

> <PUBCHEM_EFFECTIVE_ROTOR_COUNT>
3.6

> <PUBCHEM_PHARMACOPHORE_FEATURES>
12
1 2 acceptor
1 3 acceptor
1 4 acceptor
1 5 cation
1 6 cation
1 6 donor
1 7 cation
1 7 donor
1 8 donor
5 5 9 10 11 12 rings
5 5 9 13 14 15 rings
6 13 15 16 18 19 20 rings

> <PUBCHEM_HEAVY_ATOM_COUNT>
22

> <PUBCHEM_ATOM_DEF_STEREO_COUNT>
0

> <PUBCHEM_ATOM_UDEF_STEREO_COUNT>
1

> <PUBCHEM_BOND_DEF_STEREO_COUNT>
0

> <PUBCHEM_BOND_UDEF_STEREO_COUNT>
0

> <PUBCHEM_ISOTOPIC_ATOM_COUNT>
0

> <PUBCHEM_COMPONENT_COUNT>
1

> <PUBCHEM_CACTVS_TAUTO_COUNT>
20

> <PUBCHEM_CONFORMER_ID>
0000107200000001

> <PUBCHEM_MMFF94_ENERGY>
45.1257

> <PUBCHEM_FEATURE_SELFOVERLAP>
61.229

> <PUBCHEM_SHAPE_FINGERPRINT>
10382601 240 18118392080585086305
10411042 1 17472702902232657975
10493431 412 18408605833705403280
10967382 1 18337960107308119582
1100329 8 18411144653741742010
12390115 104 18262786363962318872
12553582 1 17616531100841552567
12788726 201 17903654989958765203
13140716 1 18411145735878328298
13583140 156 16772976764289797596
138480 1 17833552679502188373
14178342 30 17906467527997127656
14790565 3 18337943601944817844
15420108 30 17753059576964681167
16728300 4 17197729264899481954
16945 1 18266473164121158222
17138139 8 17608123930245626911
19591789 44 18193555795040053214
20028762 73 18187936083763415991
20157964 124 18265337395150200293
20510252 161 17543352657255731720
20739085 24 18269541909569886924
21041028 32 17620752782546149810
21197605 99 18266725902195053755
21421861 104 17695060398491682393
21524375 3 18187087230716291485
21731228 192 18411132515947684291
23184049 59 18411982476732211412
2334 1 18266751173059299958
23558518 356 17911523086666392344
23845131 108 18413107252159437067
2748010 2 18265337214191446006
3091708 16 9119506125750629315
335352 9 18409453579383772676
350125 39 18194401091642986725
474 4 18335140925261558833
5104073 3 18123486990473880952
633830 44 18114176475631829373
7832392 63 18337113350374483924
81228 2 17838347284797214751
8272917 22 18191302887341330277

> <PUBCHEM_SHAPE_MULTIPOLES>
409.35
6.79
4.78
0.88
2.51
3.98
0.17
-6.71
1.69
1.14
0.59
0.66
0.07
-0.24

> <PUBCHEM_SHAPE_SELFOVERLAP>
897.003

> <PUBCHEM_SHAPE_VOLUME>
224.3

> <PUBCHEM_COORDINATE_TYPE>
2
5
10

$$$$

