17395492
  -OEChem-06241222502D

 39 41  0     1  0  0  0  0  0999 V2000
    6.0875    2.3659    0.0000 S   0  0  0  0  0  0  0  0  0  0  0  0
    4.7026    1.2445    0.0000 S   0  0  0  0  0  0  0  0  0  0  0  0
    8.5602    3.1286    0.0000 O   0  0  0  0  0  0  0  0  0  0  0  0
    7.1753    4.2500    0.0000 O   0  0  0  0  0  0  0  0  0  0  0  0
    3.7320   -0.2500    0.0000 N   0  0  0  0  0  0  0  0  0  0  0  0
    6.1808    0.5864    0.0000 N   0  0  0  0  0  0  0  0  0  0  0  0
    5.5116   -0.1568    0.0000 N   0  0  0  0  0  0  0  0  0  0  0  0
    7.7511    1.7273    0.0000 C   0  0  0  0  0  0  0  0  0  0  0  0
    8.6647    2.1341    0.0000 C   0  0  3  0  0  0  0  0  0  0  0  0
    7.0820    2.4705    0.0000 C   0  0  3  0  0  0  0  0  0  0  0  0
    7.5820    3.3365    0.0000 C   0  0  0  0  0  0  0  0  0  0  0  0
    9.5307    1.6341    0.0000 C   0  0  0  0  0  0  0  0  0  0  0  0
    5.6808    1.4524    0.0000 C   0  0  0  0  0  0  0  0  0  0  0  0
    3.7320   -1.2500    0.0000 C   0  0  0  0  0  0  0  0  0  0  0  0
    2.8660   -1.7500    0.0000 C   0  0  0  0  0  0  0  0  0  0  0  0
    3.7320   -3.2500    0.0000 C   0  0  0  0  0  0  0  0  0  0  0  0
    4.5981    0.2500    0.0000 C   0  0  0  0  0  0  0  0  0  0  0  0
    2.8660   -2.7500    0.0000 C   0  0  0  0  0  0  0  0  0  0  0  0
    4.5981   -1.7500    0.0000 C   0  0  0  0  0  0  0  0  0  0  0  0
    4.5981   -2.7500    0.0000 C   0  0  0  0  0  0  0  0  0  0  0  0
    2.0000   -1.2500    0.0000 C   0  0  0  0  0  0  0  0  0  0  0  0
    3.7320   -4.2500    0.0000 C   0  0  0  0  0  0  0  0  0  0  0  0
    7.2496    1.3629    0.0000 H   0  0  0  0  0  0  0  0  0  0  0  0
    8.0611    1.1904    0.0000 H   0  0  0  0  0  0  0  0  0  0  0  0
    9.1847    2.4717    0.0000 H   0  0  0  0  0  0  0  0  0  0  0  0
    6.8598    1.8916    0.0000 H   0  0  0  0  0  0  0  0  0  0  0  0
    9.2207    1.0971    0.0000 H   0  0  0  0  0  0  0  0  0  0  0  0
   10.0676    1.3241    0.0000 H   0  0  0  0  0  0  0  0  0  0  0  0
    9.8407    2.1710    0.0000 H   0  0  0  0  0  0  0  0  0  0  0  0
    2.3291   -3.0600    0.0000 H   0  0  0  0  0  0  0  0  0  0  0  0
    3.1951    0.0600    0.0000 H   0  0  0  0  0  0  0  0  0  0  0  0
    5.1350   -1.4400    0.0000 H   0  0  0  0  0  0  0  0  0  0  0  0
    5.1350   -3.0600    0.0000 H   0  0  0  0  0  0  0  0  0  0  0  0
    2.3100   -0.7131    0.0000 H   0  0  0  0  0  0  0  0  0  0  0  0
    1.4631   -0.9400    0.0000 H   0  0  0  0  0  0  0  0  0  0  0  0
    1.6900   -1.7870    0.0000 H   0  0  0  0  0  0  0  0  0  0  0  0
    3.1120   -4.2500    0.0000 H   0  0  0  0  0  0  0  0  0  0  0  0
    3.7320   -4.8700    0.0000 H   0  0  0  0  0  0  0  0  0  0  0  0
    4.3520   -4.2500    0.0000 H   0  0  0  0  0  0  0  0  0  0  0  0
  1 10  1  0  0  0  0
  1 13  1  0  0  0  0
  2 13  1  0  0  0  0
  2 17  1  0  0  0  0
  3  9  1  0  0  0  0
  3 11  1  0  0  0  0
  4 11  2  0  0  0  0
  5 14  1  0  0  0  0
  5 17  1  0  0  0  0
  5 31  1  0  0  0  0
  6  7  1  0  0  0  0
  6 13  2  0  0  0  0
  7 17  2  0  0  0  0
  8  9  1  0  0  0  0
  8 10  1  0  0  0  0
  8 23  1  0  0  0  0
  8 24  1  0  0  0  0
  9 12  1  0  0  0  0
  9 25  1  0  0  0  0
 10 11  1  0  0  0  0
 10 26  1  0  0  0  0
 12 27  1  0  0  0  0
 12 28  1  0  0  0  0
 12 29  1  0  0  0  0
 14 15  2  0  0  0  0
 14 19  1  0  0  0  0
 15 18  1  0  0  0  0
 15 21  1  0  0  0  0
 16 18  2  0  0  0  0
 16 20  1  0  0  0  0
 16 22  1  0  0  0  0
 18 30  1  0  0  0  0
 19 20  2  0  0  0  0
 19 32  1  0  0  0  0
 20 33  1  0  0  0  0
 21 34  1  0  0  0  0
 21 35  1  0  0  0  0
 21 36  1  0  0  0  0
 22 37  1  0  0  0  0
 22 38  1  0  0  0  0
 22 39  1  0  0  0  0
M  END
> <PUBCHEM_COMPOUND_CID>
17395492

> <PUBCHEM_COMPOUND_CANONICALIZED>
1

> <PUBCHEM_CACTVS_COMPLEXITY>
412

> <PUBCHEM_CACTVS_HBOND_ACCEPTOR>
7

> <PUBCHEM_CACTVS_HBOND_DONOR>
1

> <PUBCHEM_CACTVS_ROTATABLE_BOND>
4

> <PUBCHEM_CACTVS_SUBSKEYS>
AAADceBzMABgAAAAAAAAAAAAAAAAAWJAAAAwAAAAAAAAAAABwAAAHgQYAAAADByl2AKz2ILABAiuAiTSaACSAQJhAhkNiAEAZIiIIDLgmZGGIAh0kAJIyCeagEAOCAACAAACAAAQAAQAAAQAAAAAAAAAAA==

> <PUBCHEM_IUPAC_OPENEYE_NAME>
3-[[5-(2,4-dimethylanilino)-1,3,4-thiadiazol-2-yl]sulfanyl]-5-methyl-tetrahydrofuran-2-one

> <PUBCHEM_IUPAC_CAS_NAME>
3-[[5-(2,4-dimethylanilino)-1,3,4-thiadiazol-2-yl]thio]-5-methyl-2-oxolanone

> <PUBCHEM_IUPAC_NAME>
3-[[5-(2,4-dimethylanilino)-1,3,4-thiadiazol-2-yl]sulfanyl]-5-methyloxolan-2-one

> <PUBCHEM_IUPAC_SYSTEMATIC_NAME>
3-[[5-[(2,4-dimethylphenyl)amino]-1,3,4-thiadiazol-2-yl]sulfanyl]-5-methyl-oxolan-2-one

> <PUBCHEM_IUPAC_TRADITIONAL_NAME>
3-[[5-(2,4-dimethylanilino)-1,3,4-thiadiazol-2-yl]thio]-5-methyl-tetrahydrofuran-2-one

> <PUBCHEM_IUPAC_INCHI>
InChI=1S/C15H17N3O2S2/c1-8-4-5-11(9(2)6-8)16-14-17-18-15(22-14)21-12-7-10(3)20-13(12)19/h4-6,10,12H,7H2,1-3H3,(H,16,17)

> <PUBCHEM_IUPAC_INCHIKEY>
SHNZSZBIVCXLFW-UHFFFAOYSA-N

> <PUBCHEM_XLOGP3_AA>
4.3

> <PUBCHEM_EXACT_MASS>
335.076219

> <PUBCHEM_MOLECULAR_FORMULA>
C15H17N3O2S2

> <PUBCHEM_MOLECULAR_WEIGHT>
335.44438

> <PUBCHEM_OPENEYE_CAN_SMILES>
CC1CC(C(=O)O1)SC2=NN=C(S2)NC3=C(C=C(C=C3)C)C

> <PUBCHEM_OPENEYE_ISO_SMILES>
CC1CC(C(=O)O1)SC2=NN=C(S2)NC3=C(C=C(C=C3)C)C

> <PUBCHEM_CACTVS_TPSA>
118

> <PUBCHEM_MONOISOTOPIC_WEIGHT>
335.076219

> <PUBCHEM_TOTAL_CHARGE>
0

> <PUBCHEM_HEAVY_ATOM_COUNT>
22

> <PUBCHEM_ATOM_DEF_STEREO_COUNT>
0

> <PUBCHEM_ATOM_UDEF_STEREO_COUNT>
2

> <PUBCHEM_BOND_DEF_STEREO_COUNT>
0

> <PUBCHEM_BOND_UDEF_STEREO_COUNT>
0

> <PUBCHEM_ISOTOPIC_ATOM_COUNT>
0

> <PUBCHEM_COMPONENT_COUNT>
1

> <PUBCHEM_CACTVS_TAUTO_COUNT>
4

> <PUBCHEM_COORDINATE_TYPE>
1
5
255

> <PUBCHEM_BONDANNOTATIONS>
10  1  3
14  15  8
14  19  8
15  18  8
16  18  8
16  20  8
19  20  8
2  13  8
2  17  8
6  13  8
6  7  8
7  17  8
9  12  3

$$$$

