854204
  -OEChem-06241222473D

 35 36  0     0  0  0  0  0  0999 V2000
    1.4630    2.7614    0.0041 O   0  0  0  0  0  0  0  0  0  0  0  0
    4.3844   -0.8177    0.0031 O   0  0  0  0  0  0  0  0  0  0  0  0
   -0.7635    0.7051   -0.0021 N   0  0  0  0  0  0  0  0  0  0  0  0
    2.1000   -1.3219   -0.0006 N   0  0  0  0  0  0  0  0  0  0  0  0
   -0.3599   -1.4897   -0.0042 N   0  0  0  0  0  0  0  0  0  0  0  0
   -2.6388   -0.7178   -0.0050 N   0  0  0  0  0  0  0  0  0  0  0  0
    2.8970    0.9410    0.0028 N   0  0  0  0  0  0  0  0  0  0  0  0
   -1.4973    1.9508   -0.0009 C   0  0  0  0  0  0  0  0  0  0  0  0
    0.5938    0.5665   -0.0007 C   0  0  0  0  0  0  0  0  0  0  0  0
   -1.2936   -0.5601   -0.0042 C   0  0  0  0  0  0  0  0  0  0  0  0
    0.8146   -0.7872   -0.0020 C   0  0  0  0  0  0  0  0  0  0  0  0
   -2.3418    2.1166    1.2640 C   0  0  0  0  0  0  0  0  0  0  0  0
   -2.3390    2.1204   -1.2670 C   0  0  0  0  0  0  0  0  0  0  0  0
    1.6314    1.5458    0.0021 C   0  0  0  0  0  0  0  0  0  0  0  0
    3.2087   -0.4420    0.0020 C   0  0  0  0  0  0  0  0  0  0  0  0
   -3.3260   -2.0075   -0.0058 C   0  0  0  0  0  0  0  0  0  0  0  0
    2.2947   -2.7648   -0.0013 C   0  0  0  0  0  0  0  0  0  0  0  0
   -4.8280   -1.7988    0.0160 C   0  0  0  0  0  0  0  0  0  0  0  0
   -0.7788    2.7708    0.0011 H   0  0  0  0  0  0  0  0  0  0  0  0
   -3.2251    1.4775    1.3112 H   0  0  0  0  0  0  0  0  0  0  0  0
   -2.7038    3.1492    1.3323 H   0  0  0  0  0  0  0  0  0  0  0  0
   -1.7422    1.9213    2.1604 H   0  0  0  0  0  0  0  0  0  0  0  0
   -1.7375    1.9278   -2.1628 H   0  0  0  0  0  0  0  0  0  0  0  0
   -2.7009    3.1532   -1.3331 H   0  0  0  0  0  0  0  0  0  0  0  0
   -3.2223    1.4815   -1.3183 H   0  0  0  0  0  0  0  0  0  0  0  0
   -3.2672    0.0735   -0.0066 H   0  0  0  0  0  0  0  0  0  0  0  0
    3.6927    1.5736    0.0046 H   0  0  0  0  0  0  0  0  0  0  0  0
   -3.0458   -2.5734   -0.9012 H   0  0  0  0  0  0  0  0  0  0  0  0
   -3.0231   -2.5873    0.8731 H   0  0  0  0  0  0  0  0  0  0  0  0
    3.3567   -3.0236   -0.0001 H   0  0  0  0  0  0  0  0  0  0  0  0
    1.8284   -3.1862   -0.8971 H   0  0  0  0  0  0  0  0  0  0  0  0
    1.8261   -3.1875    0.8926 H   0  0  0  0  0  0  0  0  0  0  0  0
   -5.1348   -1.2439    0.9089 H   0  0  0  0  0  0  0  0  0  0  0  0
   -5.1588   -1.2314   -0.8604 H   0  0  0  0  0  0  0  0  0  0  0  0
   -5.3475   -2.7620    0.0161 H   0  0  0  0  0  0  0  0  0  0  0  0
  1 14  2  0  0  0  0
  2 15  2  0  0  0  0
  3  8  1  0  0  0  0
  3  9  1  0  0  0  0
  3 10  1  0  0  0  0
  4 11  1  0  0  0  0
  4 15  1  0  0  0  0
  4 17  1  0  0  0  0
  5 10  2  0  0  0  0
  5 11  1  0  0  0  0
  6 10  1  0  0  0  0
  6 16  1  0  0  0  0
  6 26  1  0  0  0  0
  7 14  1  0  0  0  0
  7 15  1  0  0  0  0
  7 27  1  0  0  0  0
  8 12  1  0  0  0  0
  8 13  1  0  0  0  0
  8 19  1  0  0  0  0
  9 11  2  0  0  0  0
  9 14  1  0  0  0  0
 12 20  1  0  0  0  0
 12 21  1  0  0  0  0
 12 22  1  0  0  0  0
 13 23  1  0  0  0  0
 13 24  1  0  0  0  0
 13 25  1  0  0  0  0
 16 18  1  0  0  0  0
 16 28  1  0  0  0  0
 16 29  1  0  0  0  0
 17 30  1  0  0  0  0
 17 31  1  0  0  0  0
 17 32  1  0  0  0  0
 18 33  1  0  0  0  0
 18 34  1  0  0  0  0
 18 35  1  0  0  0  0
M  END
> <PUBCHEM_COMPOUND_CID>
854204

> <PUBCHEM_CONFORMER_RMSD>
0.6

> <PUBCHEM_CONFORMER_DIVERSEORDER>
1
3
2

> <PUBCHEM_MMFF94_PARTIAL_CHARGES>
17
1 -0.57
10 0.27
11 0.29
14 0.71
15 0.69
16 0.37
17 0.3
2 -0.57
26 0.4
27 0.37
3 0.05
4 -0.42
5 -0.57
6 -0.85
7 -0.49
8 0.26
9 -0.24

> <PUBCHEM_EFFECTIVE_ROTOR_COUNT>
3

> <PUBCHEM_PHARMACOPHORE_FEATURES>
8
1 1 acceptor
1 2 acceptor
1 6 donor
1 7 donor
3 8 12 13 hydrophobe
4 3 5 6 10 cation
5 3 5 9 10 11 rings
6 4 7 9 11 14 15 rings

> <PUBCHEM_HEAVY_ATOM_COUNT>
18

> <PUBCHEM_ATOM_DEF_STEREO_COUNT>
0

> <PUBCHEM_ATOM_UDEF_STEREO_COUNT>
0

> <PUBCHEM_BOND_DEF_STEREO_COUNT>
0

> <PUBCHEM_BOND_UDEF_STEREO_COUNT>
0

> <PUBCHEM_ISOTOPIC_ATOM_COUNT>
0

> <PUBCHEM_COMPONENT_COUNT>
1

> <PUBCHEM_CACTVS_TAUTO_COUNT>
8

> <PUBCHEM_CONFORMER_ID>
000D08BC00000001

> <PUBCHEM_MMFF94_ENERGY>
32.5821

> <PUBCHEM_FEATURE_SELFOVERLAP>
40.711

> <PUBCHEM_SHAPE_FINGERPRINT>
10967382 1 18122626050412747874
11471102 20 18339082562398236479
11578080 2 17314820437318294873
11806522 49 18412544280192972374
12382932 28 18265621064279517176
12730499 353 17337601502324223725
13140716 1 18049449136616779738
13380535 21 18265888245309732358
14178342 30 18336556022401144408
14790565 3 17404011531873627061
15196674 1 18410856546823647844
15375462 6 18340769234794302103
15442244 35 18265330801235573699
16945 1 18410575041950899718
193761 8 18410575119170594789
200 152 18260836973075383583
20510252 161 18334579014305108168
20645477 70 18267871584093364415
21267235 1 18410002213393810782
21501502 16 18411692197125103080
221490 88 18412825763495587679
2334 1 18338800125491308686
23402539 116 18334863788281165983
23557571 272 18187638154666383886
23559900 14 18410586066899898608
2748010 2 18264771128637526870
2871803 45 18341898467511688543
350125 39 18410007702451640448
5104073 3 18409731763639867216
54173680 148 18122344837508332474
7364860 26 18263926527761487208
7832392 63 18264485272714962040
81228 2 18272078414401821947

> <PUBCHEM_SHAPE_MULTIPOLES>
333.79
6.69
3.16
0.78
1.28
0.35
0
-3.78
-0.02
1.08
0
0.48
0.41
0.01

> <PUBCHEM_SHAPE_SELFOVERLAP>
699.542

> <PUBCHEM_SHAPE_VOLUME>
188.4

> <PUBCHEM_COORDINATE_TYPE>
2
5
10

$$$$

