12129
  -OEChem-06261206342D

 23 22  0     0  0  0  0  0  0999 V2000
    5.4641    1.3100    0.0000 O   0  0  0  0  0  0  0  0  0  0  0  0
    3.7320    1.3100    0.0000 O   0  0  0  0  0  0  0  0  0  0  0  0
    3.7320   -0.6900    0.0000 O   0  0  0  0  0  0  0  0  0  0  0  0
    4.5981    0.8100    0.0000 C   0  0  0  0  0  0  0  0  0  0  0  0
    4.5981   -0.1900    0.0000 C   0  0  0  0  0  0  0  0  0  0  0  0
    6.3301    0.8100    0.0000 C   0  0  0  0  0  0  0  0  0  0  0  0
    2.8660    0.8100    0.0000 C   0  0  0  0  0  0  0  0  0  0  0  0
    7.1962    1.3100    0.0000 C   0  0  0  0  0  0  0  0  0  0  0  0
    2.0000    1.3100    0.0000 C   0  0  0  0  0  0  0  0  0  0  0  0
    4.5981    1.4300    0.0000 H   0  0  0  0  0  0  0  0  0  0  0  0
    4.8101   -0.7726    0.0000 H   0  0  0  0  0  0  0  0  0  0  0  0
    5.2087   -0.0823    0.0000 H   0  0  0  0  0  0  0  0  0  0  0  0
    5.9316    0.3351    0.0000 H   0  0  0  0  0  0  0  0  0  0  0  0
    6.7287    0.3351    0.0000 H   0  0  0  0  0  0  0  0  0  0  0  0
    2.4675    0.3351    0.0000 H   0  0  0  0  0  0  0  0  0  0  0  0
    3.2646    0.3351    0.0000 H   0  0  0  0  0  0  0  0  0  0  0  0
    7.5062    0.7731    0.0000 H   0  0  0  0  0  0  0  0  0  0  0  0
    7.7331    1.6200    0.0000 H   0  0  0  0  0  0  0  0  0  0  0  0
    6.8862    1.8469    0.0000 H   0  0  0  0  0  0  0  0  0  0  0  0
    2.3100    1.8469    0.0000 H   0  0  0  0  0  0  0  0  0  0  0  0
    1.4631    1.6200    0.0000 H   0  0  0  0  0  0  0  0  0  0  0  0
    1.6900    0.7731    0.0000 H   0  0  0  0  0  0  0  0  0  0  0  0
    3.7320   -1.3100    0.0000 H   0  0  0  0  0  0  0  0  0  0  0  0
  1  4  1  0  0  0  0
  1  6  1  0  0  0  0
  2  4  1  0  0  0  0
  2  7  1  0  0  0  0
  3  5  1  0  0  0  0
  3 23  1  0  0  0  0
  4  5  1  0  0  0  0
  4 10  1  0  0  0  0
  5 11  1  0  0  0  0
  5 12  1  0  0  0  0
  6  8  1  0  0  0  0
  6 13  1  0  0  0  0
  6 14  1  0  0  0  0
  7  9  1  0  0  0  0
  7 15  1  0  0  0  0
  7 16  1  0  0  0  0
  8 17  1  0  0  0  0
  8 18  1  0  0  0  0
  8 19  1  0  0  0  0
  9 20  1  0  0  0  0
  9 21  1  0  0  0  0
  9 22  1  0  0  0  0
M  END
> <PUBCHEM_COMPOUND_CID>
12129

> <PUBCHEM_COMPOUND_CANONICALIZED>
1

> <PUBCHEM_CACTVS_COMPLEXITY>
50.3

> <PUBCHEM_CACTVS_HBOND_ACCEPTOR>
3

> <PUBCHEM_CACTVS_HBOND_DONOR>
1

> <PUBCHEM_CACTVS_ROTATABLE_BOND>
5

> <PUBCHEM_CACTVS_SUBSKEYS>
AAADccBgMAAAAAAAAAAAAAAAAAAAAAAAAAAAAAAAAAAAAAAAAAAAGgAACAAAAACwgAMCCAAABgAAAAAAAAAAAAAAAAAAAAAAAAAREAAAAAAiAAAAAAAHAAAAAAAAAAAAAAAAAAAAAAAAAAAAAAAAAAAAAA==

> <PUBCHEM_IUPAC_OPENEYE_NAME>
2,2-diethoxyethanol

> <PUBCHEM_IUPAC_CAS_NAME>
2,2-diethoxyethanol

> <PUBCHEM_IUPAC_NAME>
2,2-diethoxyethanol

> <PUBCHEM_IUPAC_SYSTEMATIC_NAME>
2,2-diethoxyethanol

> <PUBCHEM_IUPAC_TRADITIONAL_NAME>
2,2-diethoxyethanol

> <PUBCHEM_IUPAC_INCHI>
InChI=1S/C6H14O3/c1-3-8-6(5-7)9-4-2/h6-7H,3-5H2,1-2H3

> <PUBCHEM_IUPAC_INCHIKEY>
IKKUKDZKIIIKJK-UHFFFAOYSA-N

> <PUBCHEM_XLOGP3_AA>
0.1

> <PUBCHEM_EXACT_MASS>
134.094294

> <PUBCHEM_MOLECULAR_FORMULA>
C6H14O3

> <PUBCHEM_MOLECULAR_WEIGHT>
134.17356

> <PUBCHEM_OPENEYE_CAN_SMILES>
CCOC(CO)OCC

> <PUBCHEM_OPENEYE_ISO_SMILES>
CCOC(CO)OCC

> <PUBCHEM_CACTVS_TPSA>
38.7

> <PUBCHEM_MONOISOTOPIC_WEIGHT>
134.094294

> <PUBCHEM_TOTAL_CHARGE>
0

> <PUBCHEM_HEAVY_ATOM_COUNT>
9

> <PUBCHEM_ATOM_DEF_STEREO_COUNT>
0

> <PUBCHEM_ATOM_UDEF_STEREO_COUNT>
0

> <PUBCHEM_BOND_DEF_STEREO_COUNT>
0

> <PUBCHEM_BOND_UDEF_STEREO_COUNT>
0

> <PUBCHEM_ISOTOPIC_ATOM_COUNT>
0

> <PUBCHEM_COMPONENT_COUNT>
1

> <PUBCHEM_CACTVS_TAUTO_COUNT>
1

> <PUBCHEM_COORDINATE_TYPE>
1
5
255

$$$$

