10274
  -OEChem-06261204252D

 32 34  0     0  0  0  0  0  0999 V2000
    6.8671    0.2500    0.0000 O   0  0  0  0  0  0  0  0  0  0  0  0
    5.1350   -1.7500    0.0000 O   0  0  0  0  0  0  0  0  0  0  0  0
    6.8671   -2.7500    0.0000 O   0  0  0  0  0  0  0  0  0  0  0  0
    4.2690    2.7500    0.0000 O   0  0  0  0  0  0  0  0  0  0  0  0
    2.5369   -0.2500    0.0000 O   0  0  0  0  0  0  0  0  0  0  0  0
    2.5369    1.7500    0.0000 O   0  0  0  0  0  0  0  0  0  0  0  0
   10.3972    0.2741    0.0000 O   0  0  0  0  0  0  0  0  0  0  0  0
    6.0010   -0.2500    0.0000 C   0  0  0  0  0  0  0  0  0  0  0  0
    7.7331   -1.2500    0.0000 C   0  0  0  0  0  0  0  0  0  0  0  0
    5.1350    0.2500    0.0000 C   0  0  0  0  0  0  0  0  0  0  0  0
    7.7331   -0.2500    0.0000 C   0  0  0  0  0  0  0  0  0  0  0  0
    6.0010   -1.2500    0.0000 C   0  0  0  0  0  0  0  0  0  0  0  0
    6.8671   -1.7500    0.0000 C   0  0  0  0  0  0  0  0  0  0  0  0
    4.2690   -0.2500    0.0000 C   0  0  0  0  0  0  0  0  0  0  0  0
    5.1350    1.2500    0.0000 C   0  0  0  0  0  0  0  0  0  0  0  0
    8.6270   -1.7847    0.0000 C   0  0  0  0  0  0  0  0  0  0  0  0
    8.6270    0.2847    0.0000 C   0  0  0  0  0  0  0  0  0  0  0  0
    4.2690    1.7500    0.0000 C   0  0  0  0  0  0  0  0  0  0  0  0
    3.4030    0.2500    0.0000 C   0  0  0  0  0  0  0  0  0  0  0  0
    3.4030    1.2500    0.0000 C   0  0  0  0  0  0  0  0  0  0  0  0
    9.5331   -1.2708    0.0000 C   0  0  0  0  0  0  0  0  0  0  0  0
    9.5331   -0.2292    0.0000 C   0  0  0  0  0  0  0  0  0  0  0  0
    4.2690   -0.8700    0.0000 H   0  0  0  0  0  0  0  0  0  0  0  0
    5.6719    1.5600    0.0000 H   0  0  0  0  0  0  0  0  0  0  0  0
    8.6199   -2.4046    0.0000 H   0  0  0  0  0  0  0  0  0  0  0  0
    8.6199    0.9046    0.0000 H   0  0  0  0  0  0  0  0  0  0  0  0
   10.0688   -1.5829    0.0000 H   0  0  0  0  0  0  0  0  0  0  0  0
    5.1350   -2.3700    0.0000 H   0  0  0  0  0  0  0  0  0  0  0  0
    7.4040   -3.0600    0.0000 H   0  0  0  0  0  0  0  0  0  0  0  0
    4.8059    3.0600    0.0000 H   0  0  0  0  0  0  0  0  0  0  0  0
    2.0000    0.0600    0.0000 H   0  0  0  0  0  0  0  0  0  0  0  0
    2.5369    2.3700    0.0000 H   0  0  0  0  0  0  0  0  0  0  0  0
  1  8  1  0  0  0  0
  1 11  1  0  0  0  0
  2 12  1  0  0  0  0
  2 28  1  0  0  0  0
  3 13  1  0  0  0  0
  3 29  1  0  0  0  0
  4 18  1  0  0  0  0
  4 30  1  0  0  0  0
  5 19  1  0  0  0  0
  5 31  1  0  0  0  0
  6 20  1  0  0  0  0
  6 32  1  0  0  0  0
  7 22  2  0  0  0  0
  8 10  1  0  0  0  0
  8 12  2  0  0  0  0
  9 11  1  0  0  0  0
  9 13  2  0  0  0  0
  9 16  1  0  0  0  0
 10 14  2  0  0  0  0
 10 15  1  0  0  0  0
 11 17  2  0  0  0  0
 12 13  1  0  0  0  0
 14 19  1  0  0  0  0
 14 23  1  0  0  0  0
 15 18  2  0  0  0  0
 15 24  1  0  0  0  0
 16 21  2  0  0  0  0
 16 25  1  0  0  0  0
 17 22  1  0  0  0  0
 17 26  1  0  0  0  0
 18 20  1  0  0  0  0
 19 20  2  0  0  0  0
 21 22  1  0  0  0  0
 21 27  1  0  0  0  0
M  END
> <PUBCHEM_COMPOUND_CID>
10274

> <PUBCHEM_COMPOUND_CANONICALIZED>
1

> <PUBCHEM_CACTVS_COMPLEXITY>
628

> <PUBCHEM_CACTVS_HBOND_ACCEPTOR>
7

> <PUBCHEM_CACTVS_HBOND_DONOR>
5

> <PUBCHEM_CACTVS_ROTATABLE_BOND>
1

> <PUBCHEM_CACTVS_SUBSKEYS>
AAADccBwOAAAAAAAAAAAAAAAAAAAAAAAAAAwQIAAAAAAAACBAAAAGgAACAAADASAmAAwBoAABgCIAqBSAAACCAAgIAAIiAAGiMgJJyKCMRqCcAElwBUJuYfA4DwOIAABCAAAQABAAAIQAACAAAAAAAAAAA==

> <PUBCHEM_IUPAC_OPENEYE_NAME>
3,4-dihydroxy-2-(3,4,5-trihydroxyphenyl)chromen-7-one

> <PUBCHEM_IUPAC_CAS_NAME>
3,4-dihydroxy-2-(3,4,5-trihydroxyphenyl)-1-benzopyran-7-one

> <PUBCHEM_IUPAC_NAME>
3,4-dihydroxy-2-(3,4,5-trihydroxyphenyl)chromen-7-one

> <PUBCHEM_IUPAC_SYSTEMATIC_NAME>
3,4-bis(oxidanyl)-2-[3,4,5-tris(oxidanyl)phenyl]chromen-7-one

> <PUBCHEM_IUPAC_TRADITIONAL_NAME>
3,4-dihydroxy-2-(3,4,5-trihydroxyphenyl)chromen-7-one

> <PUBCHEM_IUPAC_INCHI>
InChI=1S/C15H10O7/c16-7-1-2-8-11(5-7)22-15(14(21)12(8)19)6-3-9(17)13(20)10(18)4-6/h1-5,17-21H

> <PUBCHEM_IUPAC_INCHIKEY>
KSPKRUKRQRUNBI-UHFFFAOYSA-N

> <PUBCHEM_XLOGP3_AA>
0.3

> <PUBCHEM_EXACT_MASS>
302.042653

> <PUBCHEM_MOLECULAR_FORMULA>
C15H10O7

> <PUBCHEM_MOLECULAR_WEIGHT>
302.2357

> <PUBCHEM_OPENEYE_CAN_SMILES>
C1=CC2=C(C(=C(OC2=CC1=O)C3=CC(=C(C(=C3)O)O)O)O)O

> <PUBCHEM_OPENEYE_ISO_SMILES>
C1=CC2=C(C(=C(OC2=CC1=O)C3=CC(=C(C(=C3)O)O)O)O)O

> <PUBCHEM_CACTVS_TPSA>
127

> <PUBCHEM_MONOISOTOPIC_WEIGHT>
302.042653

> <PUBCHEM_TOTAL_CHARGE>
0

> <PUBCHEM_HEAVY_ATOM_COUNT>
22

> <PUBCHEM_ATOM_DEF_STEREO_COUNT>
0

> <PUBCHEM_ATOM_UDEF_STEREO_COUNT>
0

> <PUBCHEM_BOND_DEF_STEREO_COUNT>
0

> <PUBCHEM_BOND_UDEF_STEREO_COUNT>
0

> <PUBCHEM_ISOTOPIC_ATOM_COUNT>
0

> <PUBCHEM_COMPONENT_COUNT>
1

> <PUBCHEM_CACTVS_TAUTO_COUNT>
267

> <PUBCHEM_COORDINATE_TYPE>
1
5
255

> <PUBCHEM_BONDANNOTATIONS>
1  11  8
1  8  8
10  14  8
10  15  8
11  17  8
12  13  8
14  19  8
15  18  8
16  21  8
17  22  8
18  20  8
19  20  8
21  22  8
8  12  8
9  13  8
9  16  8

$$$$

