8756
  -OEChem-06261203043D

 66 66  0     0  0  0  0  0  0999 V2000
    4.9338    1.6329   -0.0520 N   0  3  0  0  0  0  0  0  0  0  0  0
    3.8310    0.7710   -0.5369 C   0  0  0  0  0  0  0  0  0  0  0  0
    2.4938    1.2393    0.0249 C   0  0  0  0  0  0  0  0  0  0  0  0
    6.2828    1.1691   -0.6214 C   0  0  0  0  0  0  0  0  0  0  0  0
    1.2734    0.3963   -0.3616 C   0  0  0  0  0  0  0  0  0  0  0  0
    4.7159    3.0927   -0.4771 C   0  0  0  0  0  0  0  0  0  0  0  0
    5.0265    1.5935    1.4806 C   0  0  0  0  0  0  0  0  0  0  0  0
   -0.0455    0.9470    0.1862 C   0  0  0  0  0  0  0  0  0  0  0  0
   -1.2351    0.1188   -0.3057 C   0  0  0  0  0  0  0  0  0  0  0  0
   -2.5887    0.6439    0.1824 C   0  0  0  0  0  0  0  0  0  0  0  0
    6.6111   -0.2524   -0.2714 C   0  0  0  0  0  0  0  0  0  0  0  0
   -3.8197   -0.1314   -0.2972 C   0  0  0  0  0  0  0  0  0  0  0  0
   -5.1366    0.4017    0.2726 C   0  0  0  0  0  0  0  0  0  0  0  0
   -6.3283   -0.4156   -0.2334 C   0  0  0  0  0  0  0  0  0  0  0  0
   -7.6777    0.0900    0.2857 C   0  0  0  0  0  0  0  0  0  0  0  0
   -8.8743   -0.6813   -0.2782 C   0  0  0  0  0  0  0  0  0  0  0  0
    7.3170   -0.5378    0.8975 C   0  0  0  0  0  0  0  0  0  0  0  0
    6.2102   -1.2890   -1.1145 C   0  0  0  0  0  0  0  0  0  0  0  0
  -10.1930   -0.1420    0.2827 C   0  0  0  0  0  0  0  0  0  0  0  0
    7.6221   -1.8593    1.2231 C   0  0  0  0  0  0  0  0  0  0  0  0
    6.5152   -2.6105   -0.7887 C   0  0  0  0  0  0  0  0  0  0  0  0
  -11.4223   -0.8983   -0.2256 C   0  0  0  0  0  0  0  0  0  0  0  0
    7.2212   -2.8956    0.3801 C   0  0  0  0  0  0  0  0  0  0  0  0
  -12.7330   -0.3830    0.3483 C   0  0  0  0  0  0  0  0  0  0  0  0
    3.8234    0.7931   -1.6330 H   0  0  0  0  0  0  0  0  0  0  0  0
    3.9933   -0.2561   -0.1980 H   0  0  0  0  0  0  0  0  0  0  0  0
    2.2778    2.2586   -0.3120 H   0  0  0  0  0  0  0  0  0  0  0  0
    2.5135    1.2621    1.1191 H   0  0  0  0  0  0  0  0  0  0  0  0
    7.0590    1.8513   -0.2513 H   0  0  0  0  0  0  0  0  0  0  0  0
    6.2338    1.2980   -1.7106 H   0  0  0  0  0  0  0  0  0  0  0  0
    1.4174   -0.6300   -0.0020 H   0  0  0  0  0  0  0  0  0  0  0  0
    1.2171    0.3430   -1.4561 H   0  0  0  0  0  0  0  0  0  0  0  0
    4.5202    3.1130   -1.5531 H   0  0  0  0  0  0  0  0  0  0  0  0
    3.8866    3.5262    0.0866 H   0  0  0  0  0  0  0  0  0  0  0  0
    5.6283    3.6529   -0.2484 H   0  0  0  0  0  0  0  0  0  0  0  0
    4.9378    0.5600    1.8257 H   0  0  0  0  0  0  0  0  0  0  0  0
    5.9804    2.0363    1.7837 H   0  0  0  0  0  0  0  0  0  0  0  0
    4.2218    2.1995    1.9065 H   0  0  0  0  0  0  0  0  0  0  0  0
   -0.1702    1.9883   -0.1337 H   0  0  0  0  0  0  0  0  0  0  0  0
   -0.0200    0.9452    1.2823 H   0  0  0  0  0  0  0  0  0  0  0  0
   -1.2381    0.1039   -1.4027 H   0  0  0  0  0  0  0  0  0  0  0  0
   -1.1156   -0.9205    0.0243 H   0  0  0  0  0  0  0  0  0  0  0  0
   -2.6932    1.6909   -0.1294 H   0  0  0  0  0  0  0  0  0  0  0  0
   -2.5833    0.6486    1.2799 H   0  0  0  0  0  0  0  0  0  0  0  0
   -3.7056   -1.1857   -0.0162 H   0  0  0  0  0  0  0  0  0  0  0  0
   -3.8555   -0.0984   -1.3931 H   0  0  0  0  0  0  0  0  0  0  0  0
   -5.2615    1.4524   -0.0148 H   0  0  0  0  0  0  0  0  0  0  0  0
   -5.1062    0.3664    1.3681 H   0  0  0  0  0  0  0  0  0  0  0  0
   -6.3384   -0.3935   -1.3304 H   0  0  0  0  0  0  0  0  0  0  0  0
   -6.2019   -1.4648    0.0608 H   0  0  0  0  0  0  0  0  0  0  0  0
   -7.6851    0.0250    1.3808 H   0  0  0  0  0  0  0  0  0  0  0  0
   -7.7836    1.1519    0.0309 H   0  0  0  0  0  0  0  0  0  0  0  0
   -8.8809   -0.6046   -1.3720 H   0  0  0  0  0  0  0  0  0  0  0  0
   -8.7755   -1.7443   -0.0279 H   0  0  0  0  0  0  0  0  0  0  0  0
    7.6485    0.2574    1.5594 H   0  0  0  0  0  0  0  0  0  0  0  0
    5.6669   -1.0828   -2.0329 H   0  0  0  0  0  0  0  0  0  0  0  0
  -10.2912    0.9190    0.0217 H   0  0  0  0  0  0  0  0  0  0  0  0
  -10.1687   -0.1974    1.3783 H   0  0  0  0  0  0  0  0  0  0  0  0
  -11.3225   -1.9616    0.0231 H   0  0  0  0  0  0  0  0  0  0  0  0
  -11.4630   -0.8305   -1.3192 H   0  0  0  0  0  0  0  0  0  0  0  0
    8.1744   -2.0812    2.1315 H   0  0  0  0  0  0  0  0  0  0  0  0
    6.2048   -3.4174   -1.4460 H   0  0  0  0  0  0  0  0  0  0  0  0
    7.4596   -3.9246    0.6330 H   0  0  0  0  0  0  0  0  0  0  0  0
  -12.7431   -0.4724    1.4392 H   0  0  0  0  0  0  0  0  0  0  0  0
  -12.8854    0.6693    0.0884 H   0  0  0  0  0  0  0  0  0  0  0  0
  -13.5749   -0.9583   -0.0492 H   0  0  0  0  0  0  0  0  0  0  0  0
  1  2  1  0  0  0  0
  1  4  1  0  0  0  0
  1  6  1  0  0  0  0
  1  7  1  0  0  0  0
  2  3  1  0  0  0  0
  2 25  1  0  0  0  0
  2 26  1  0  0  0  0
  3  5  1  0  0  0  0
  3 27  1  0  0  0  0
  3 28  1  0  0  0  0
  4 11  1  0  0  0  0
  4 29  1  0  0  0  0
  4 30  1  0  0  0  0
  5  8  1  0  0  0  0
  5 31  1  0  0  0  0
  5 32  1  0  0  0  0
  6 33  1  0  0  0  0
  6 34  1  0  0  0  0
  6 35  1  0  0  0  0
  7 36  1  0  0  0  0
  7 37  1  0  0  0  0
  7 38  1  0  0  0  0
  8  9  1  0  0  0  0
  8 39  1  0  0  0  0
  8 40  1  0  0  0  0
  9 10  1  0  0  0  0
  9 41  1  0  0  0  0
  9 42  1  0  0  0  0
 10 12  1  0  0  0  0
 10 43  1  0  0  0  0
 10 44  1  0  0  0  0
 11 17  2  0  0  0  0
 11 18  1  0  0  0  0
 12 13  1  0  0  0  0
 12 45  1  0  0  0  0
 12 46  1  0  0  0  0
 13 14  1  0  0  0  0
 13 47  1  0  0  0  0
 13 48  1  0  0  0  0
 14 15  1  0  0  0  0
 14 49  1  0  0  0  0
 14 50  1  0  0  0  0
 15 16  1  0  0  0  0
 15 51  1  0  0  0  0
 15 52  1  0  0  0  0
 16 19  1  0  0  0  0
 16 53  1  0  0  0  0
 16 54  1  0  0  0  0
 17 20  1  0  0  0  0
 17 55  1  0  0  0  0
 18 21  2  0  0  0  0
 18 56  1  0  0  0  0
 19 22  1  0  0  0  0
 19 57  1  0  0  0  0
 19 58  1  0  0  0  0
 20 23  2  0  0  0  0
 20 61  1  0  0  0  0
 21 23  1  0  0  0  0
 21 62  1  0  0  0  0
 22 24  1  0  0  0  0
 22 59  1  0  0  0  0
 22 60  1  0  0  0  0
 23 63  1  0  0  0  0
 24 64  1  0  0  0  0
 24 65  1  0  0  0  0
 24 66  1  0  0  0  0
M  CHG  1   1   1
M  END
> <PUBCHEM_COMPOUND_CID>
8756

> <PUBCHEM_CONFORMER_RMSD>
1.4

> <PUBCHEM_CONFORMER_DIVERSEORDER>
1
71
2
60
111
42
105
52
15
106
81
127
13
72
67
88
101
66
61
31
73
92
112
79
102
100
34
116
77
58
113
99
70
87
25
109
94
64
7
129
68
128
62
119
39
121
107
130
26
85
76
10
47
69
11
55
50
51
122
20
30
110
124
80
16
103
123
21
63
53
4
115
74
84
29
32
40
104
82
93
5
18
75
44
65
38
98
96
78
41
57
91
95
6
43
108
97
49
46
56
19
36
90
22
117
86
45
35
48
28
33
125
114
37
14
23
89
9
120
54
3
8
12
24
83
126
118
27
17
59

> <PUBCHEM_MMFF94_PARTIAL_CHARGES>
16
1 -1.01
11 -0.14
17 -0.15
18 -0.15
2 0.5
20 -0.15
21 -0.15
23 -0.15
4 0.65
55 0.15
56 0.15
6 0.5
61 0.15
62 0.15
63 0.15
7 0.5

> <PUBCHEM_EFFECTIVE_ROTOR_COUNT>
15

> <PUBCHEM_PHARMACOPHORE_FEATURES>
3
1 1 cation
1 24 hydrophobe
6 11 17 18 20 21 23 rings

> <PUBCHEM_HEAVY_ATOM_COUNT>
24

> <PUBCHEM_ATOM_DEF_STEREO_COUNT>
0

> <PUBCHEM_ATOM_UDEF_STEREO_COUNT>
0

> <PUBCHEM_BOND_DEF_STEREO_COUNT>
0

> <PUBCHEM_BOND_UDEF_STEREO_COUNT>
0

> <PUBCHEM_ISOTOPIC_ATOM_COUNT>
0

> <PUBCHEM_COMPONENT_COUNT>
1

> <PUBCHEM_CACTVS_TAUTO_COUNT>
1

> <PUBCHEM_CONFORMER_ID>
0000223400000001

> <PUBCHEM_MMFF94_ENERGY>
41.3927

> <PUBCHEM_FEATURE_SELFOVERLAP>
15.223

> <PUBCHEM_SHAPE_FINGERPRINT>
10168742 298 16773789321238138683
10666366 153 17632583772816404197
11211813 74 10735868465866749030
11638347 137 18412544310605636703
12089408 11 18187644683802501181
125118 31 8214150650827669122
13533116 47 18334295371340538592
13617811 41 15841550799578391614
13947934 56 18261955258844318329
14202775 3 18200870687888794915
14216079 64 18342457058315533804
14251764 46 18410573980861771589
14537116 161 13830125105798646334
15510794 2 18272083882623560251
1754908 1 14490191592474774959
20578428 11 17988921138463409780
20737093 172 8539902273637044146
20771845 140 16805325535178356334
20771845 171 13470693680894286560
20812841 46 17385729079937896448
21315763 28 18410573994338062869
21360442 67 12463572893745159872
21362267 313 17023453266261764763
21792934 111 17603589633917571569
232437 2 18411418402689173183
33532 11 18411419509625125822
33684 2 18187363217378749885
437795 160 14635161092943468397
439807 62 18334012787328498112
444735 82 7853854992694179178
4625314 4 18272370842019904005
5283156 175 18186237333897434893
6081469 158 18343866619707063533
67123 10 17458623390420815141
9937071 3 18412824681813033371

> <PUBCHEM_SHAPE_MULTIPOLES>
488.93
44.38
2.36
0.97
143.52
0.29
0.14
20.66
3.76
-8.76
-0.07
-1.72
0.08
-0.47

> <PUBCHEM_SHAPE_SELFOVERLAP>
933.8

> <PUBCHEM_SHAPE_VOLUME>
301.2

> <PUBCHEM_COORDINATE_TYPE>
2
5
10

$$$$

