13884
  -OEChem-06241222402D

 22 23  0     1  0  0  0  0  0999 V2000
    2.2788    0.9139    0.0000 O   0  0  0  0  0  0  0  0  0  0  0  0
    2.0000    2.6739    0.0000 O   0  0  0  0  0  0  0  0  0  0  0  0
    3.0878    0.3261    0.0000 C   0  0  3  0  0  0  0  0  0  0  0  0
    3.8968    0.9139    0.0000 C   0  0  0  0  0  0  0  0  0  0  0  0
    3.5878    1.8649    0.0000 C   0  0  0  0  0  0  0  0  0  0  0  0
    3.0878   -0.6739    0.0000 C   0  0  0  0  0  0  0  0  0  0  0  0
    2.5878    1.8649    0.0000 C   0  0  0  0  0  0  0  0  0  0  0  0
    2.2218   -1.1739    0.0000 C   0  0  0  0  0  0  0  0  0  0  0  0
    3.9538   -1.1739    0.0000 C   0  0  0  0  0  0  0  0  0  0  0  0
    2.2218   -2.1739    0.0000 C   0  0  0  0  0  0  0  0  0  0  0  0
    3.9538   -2.1739    0.0000 C   0  0  0  0  0  0  0  0  0  0  0  0
    3.0878   -2.6739    0.0000 C   0  0  0  0  0  0  0  0  0  0  0  0
    3.6402    0.0446    0.0000 H   0  0  0  0  0  0  0  0  0  0  0  0
    4.2068    0.3769    0.0000 H   0  0  0  0  0  0  0  0  0  0  0  0
    4.4632    1.1660    0.0000 H   0  0  0  0  0  0  0  0  0  0  0  0
    4.1942    1.9938    0.0000 H   0  0  0  0  0  0  0  0  0  0  0  0
    3.5230    2.4815    0.0000 H   0  0  0  0  0  0  0  0  0  0  0  0
    1.6848   -0.8639    0.0000 H   0  0  0  0  0  0  0  0  0  0  0  0
    4.4908   -0.8639    0.0000 H   0  0  0  0  0  0  0  0  0  0  0  0
    1.6848   -2.4839    0.0000 H   0  0  0  0  0  0  0  0  0  0  0  0
    4.4908   -2.4839    0.0000 H   0  0  0  0  0  0  0  0  0  0  0  0
    3.0878   -3.2939    0.0000 H   0  0  0  0  0  0  0  0  0  0  0  0
  1  3  1  0  0  0  0
  1  7  1  0  0  0  0
  2  7  2  0  0  0  0
  3  4  1  0  0  0  0
  3  6  1  0  0  0  0
  3 13  1  0  0  0  0
  4  5  1  0  0  0  0
  4 14  1  0  0  0  0
  4 15  1  0  0  0  0
  5  7  1  0  0  0  0
  5 16  1  0  0  0  0
  5 17  1  0  0  0  0
  6  8  2  0  0  0  0
  6  9  1  0  0  0  0
  8 10  1  0  0  0  0
  8 18  1  0  0  0  0
  9 11  2  0  0  0  0
  9 19  1  0  0  0  0
 10 12  2  0  0  0  0
 10 20  1  0  0  0  0
 11 12  1  0  0  0  0
 11 21  1  0  0  0  0
 12 22  1  0  0  0  0
M  END
> <PUBCHEM_COMPOUND_CID>
13884

> <PUBCHEM_COMPOUND_CANONICALIZED>
1

> <PUBCHEM_CACTVS_COMPLEXITY>
171

> <PUBCHEM_CACTVS_HBOND_ACCEPTOR>
2

> <PUBCHEM_CACTVS_HBOND_DONOR>
0

> <PUBCHEM_CACTVS_ROTATABLE_BOND>
1

> <PUBCHEM_CACTVS_SUBSKEYS>
AAADccBwMAAAAAAAAAAAAAAAAAAAASAAAAAwAAAAAAAAAAABAAAAGgAAAAAADBSgmAIwCIAABACIAiDSCAACAAAgAAAIiAEACIgIJjKAMRiCMAAkwAEIqAeKyLCOAAAAAAAAAAAAAAAAAAAAAAAAAAAAAA==

> <PUBCHEM_IUPAC_OPENEYE_NAME>
5-phenyltetrahydrofuran-2-one

> <PUBCHEM_IUPAC_CAS_NAME>
5-phenyl-2-oxolanone

> <PUBCHEM_IUPAC_NAME>
5-phenyloxolan-2-one

> <PUBCHEM_IUPAC_SYSTEMATIC_NAME>
5-phenyloxolan-2-one

> <PUBCHEM_IUPAC_TRADITIONAL_NAME>
5-phenyltetrahydrofuran-2-one

> <PUBCHEM_IUPAC_INCHI>
InChI=1S/C10H10O2/c11-10-7-6-9(12-10)8-4-2-1-3-5-8/h1-5,9H,6-7H2

> <PUBCHEM_IUPAC_INCHIKEY>
AEUULUMEYIPECD-UHFFFAOYSA-N

> <PUBCHEM_XLOGP3_AA>
1.7

> <PUBCHEM_EXACT_MASS>
162.06808

> <PUBCHEM_MOLECULAR_FORMULA>
C10H10O2

> <PUBCHEM_MOLECULAR_WEIGHT>
162.1852

> <PUBCHEM_OPENEYE_CAN_SMILES>
C1CC(=O)OC1C2=CC=CC=C2

> <PUBCHEM_OPENEYE_ISO_SMILES>
C1CC(=O)OC1C2=CC=CC=C2

> <PUBCHEM_CACTVS_TPSA>
26.3

> <PUBCHEM_MONOISOTOPIC_WEIGHT>
162.06808

> <PUBCHEM_TOTAL_CHARGE>
0

> <PUBCHEM_HEAVY_ATOM_COUNT>
12

> <PUBCHEM_ATOM_DEF_STEREO_COUNT>
0

> <PUBCHEM_ATOM_UDEF_STEREO_COUNT>
1

> <PUBCHEM_BOND_DEF_STEREO_COUNT>
0

> <PUBCHEM_BOND_UDEF_STEREO_COUNT>
0

> <PUBCHEM_ISOTOPIC_ATOM_COUNT>
0

> <PUBCHEM_COMPONENT_COUNT>
1

> <PUBCHEM_CACTVS_TAUTO_COUNT>
2

> <PUBCHEM_COORDINATE_TYPE>
1
5
255

> <PUBCHEM_BONDANNOTATIONS>
10  12  8
11  12  8
3  6  3
6  8  8
6  9  8
8  10  8
9  11  8

$$$$

