7847016
  -OEChem-06241222483D

 49 51  0     0  0  0  0  0  0999 V2000
   -0.2128   -2.1974   -1.7154 S   0  0  0  0  0  0  0  0  0  0  0  0
   -2.2798    1.5838   -0.9328 O   0  0  0  0  0  0  0  0  0  0  0  0
   -2.2565    1.1455    2.1507 O   0  0  0  0  0  0  0  0  0  0  0  0
   -4.2391    0.5626   -0.2689 O   0  0  0  0  0  0  0  0  0  0  0  0
   -0.2431    2.0714    1.4579 N   0  0  0  0  0  0  0  0  0  0  0  0
   -1.8093   -1.8724    0.2840 N   0  0  0  0  0  0  0  0  0  0  0  0
    0.5534    2.8655    0.5258 C   0  0  0  0  0  0  0  0  0  0  0  0
    1.6210    2.0466   -0.1402 C   0  0  0  0  0  0  0  0  0  0  0  0
   -2.9274   -1.6579   -1.9365 C   0  0  0  0  0  0  0  0  0  0  0  0
   -3.0891   -0.1765   -2.2807 C   0  0  0  0  0  0  0  0  0  0  0  0
   -1.7480   -1.8894   -1.0270 C   0  0  0  0  0  0  0  0  0  0  0  0
   -1.6137    1.8332    1.3515 C   0  0  0  0  0  0  0  0  0  0  0  0
    2.8840    1.9413    0.4421 C   0  0  0  0  0  0  0  0  0  0  0  0
    1.3495    1.3901   -1.3408 C   0  0  0  0  0  0  0  0  0  0  0  0
   -2.3408    2.4537    0.1772 C   0  0  0  0  0  0  0  0  0  0  0  0
    0.4601   -2.3252   -0.1330 C   0  0  0  0  0  0  0  0  0  0  0  0
   -0.5505   -2.1207    0.8114 C   0  0  0  0  0  0  0  0  0  0  0  0
    0.5016    1.4877    2.5669 C   0  0  0  0  0  0  0  0  0  0  0  0
    3.6044    0.5232   -1.3764 C   0  0  0  0  0  0  0  0  0  0  0  0
    3.8757    1.1797   -0.1759 C   0  0  0  0  0  0  0  0  0  0  0  0
    2.3412    0.6284   -1.9588 C   0  0  0  0  0  0  0  0  0  0  0  0
   -3.3012    0.6708   -1.0467 C   0  0  0  0  0  0  0  0  0  0  0  0
    1.7867   -2.5873    0.2455 C   0  0  0  0  0  0  0  0  0  0  0  0
   -0.2189   -2.1814    2.1824 C   0  0  0  0  0  0  0  0  0  0  0  0
    4.6648   -0.2913   -2.0368 C   0  0  0  0  0  0  0  0  0  0  0  0
    2.0879   -2.6420    1.6086 C   0  0  0  0  0  0  0  0  0  0  0  0
    1.0997   -2.4420    2.5661 C   0  0  0  0  0  0  0  0  0  0  0  0
   -0.0422    3.3455   -0.2501 H   0  0  0  0  0  0  0  0  0  0  0  0
    1.0043    3.6883    1.0954 H   0  0  0  0  0  0  0  0  0  0  0  0
   -3.8300   -2.0205   -1.4289 H   0  0  0  0  0  0  0  0  0  0  0  0
   -2.8282   -2.2430   -2.8583 H   0  0  0  0  0  0  0  0  0  0  0  0
   -2.2107    0.1850   -2.8291 H   0  0  0  0  0  0  0  0  0  0  0  0
   -3.9530   -0.0272   -2.9379 H   0  0  0  0  0  0  0  0  0  0  0  0
    3.1133    2.4519    1.3735 H   0  0  0  0  0  0  0  0  0  0  0  0
    0.3713    1.4651   -1.8068 H   0  0  0  0  0  0  0  0  0  0  0  0
   -1.9572    3.4367   -0.0969 H   0  0  0  0  0  0  0  0  0  0  0  0
   -3.3769    2.6504    0.4828 H   0  0  0  0  0  0  0  0  0  0  0  0
    1.1251    2.2558    3.0338 H   0  0  0  0  0  0  0  0  0  0  0  0
   -0.1731    1.0867    3.3286 H   0  0  0  0  0  0  0  0  0  0  0  0
    1.1215    0.6661    2.2019 H   0  0  0  0  0  0  0  0  0  0  0  0
    4.8566    1.1073    0.2863 H   0  0  0  0  0  0  0  0  0  0  0  0
    2.1197    0.1253   -2.8963 H   0  0  0  0  0  0  0  0  0  0  0  0
    2.5636   -2.7436   -0.4966 H   0  0  0  0  0  0  0  0  0  0  0  0
   -0.9826   -2.0240    2.9387 H   0  0  0  0  0  0  0  0  0  0  0  0
    4.2297   -1.1269   -2.5956 H   0  0  0  0  0  0  0  0  0  0  0  0
    5.3489   -0.7228   -1.2981 H   0  0  0  0  0  0  0  0  0  0  0  0
    5.2413    0.3313   -2.7281 H   0  0  0  0  0  0  0  0  0  0  0  0
    3.1090   -2.8421    1.9227 H   0  0  0  0  0  0  0  0  0  0  0  0
    1.3529   -2.4864    3.6218 H   0  0  0  0  0  0  0  0  0  0  0  0
  1 11  1  0  0  0  0
  1 16  1  0  0  0  0
  2 15  1  0  0  0  0
  2 22  1  0  0  0  0
  3 12  2  0  0  0  0
  4 22  2  0  0  0  0
  5  7  1  0  0  0  0
  5 12  1  0  0  0  0
  5 18  1  0  0  0  0
  6 11  2  0  0  0  0
  6 17  1  0  0  0  0
  7  8  1  0  0  0  0
  7 28  1  0  0  0  0
  7 29  1  0  0  0  0
  8 13  2  0  0  0  0
  8 14  1  0  0  0  0
  9 10  1  0  0  0  0
  9 11  1  0  0  0  0
  9 30  1  0  0  0  0
  9 31  1  0  0  0  0
 10 22  1  0  0  0  0
 10 32  1  0  0  0  0
 10 33  1  0  0  0  0
 12 15  1  0  0  0  0
 13 20  1  0  0  0  0
 13 34  1  0  0  0  0
 14 21  2  0  0  0  0
 14 35  1  0  0  0  0
 15 36  1  0  0  0  0
 15 37  1  0  0  0  0
 16 17  1  0  0  0  0
 16 23  2  0  0  0  0
 17 24  2  0  0  0  0
 18 38  1  0  0  0  0
 18 39  1  0  0  0  0
 18 40  1  0  0  0  0
 19 20  2  0  0  0  0
 19 21  1  0  0  0  0
 19 25  1  0  0  0  0
 20 41  1  0  0  0  0
 21 42  1  0  0  0  0
 23 26  1  0  0  0  0
 23 43  1  0  0  0  0
 24 27  1  0  0  0  0
 24 44  1  0  0  0  0
 25 45  1  0  0  0  0
 25 46  1  0  0  0  0
 25 47  1  0  0  0  0
 26 27  2  0  0  0  0
 26 48  1  0  0  0  0
 27 49  1  0  0  0  0
M  END
> <PUBCHEM_COMPOUND_CID>
7847016

> <PUBCHEM_CONFORMER_RMSD>
1.2

> <PUBCHEM_CONFORMER_DIVERSEORDER>
7
77
48
76
263
81
117
40
13
123
245
222
15
187
23
207
49
239
250
44
171
278
90
109
334
28
276
208
34
176
201
75
158
62
137
270
139
135
50
58
296
8
254
236
206
69
110
165
312
14
67
133
282
193
256
17
218
288
5
105
85
127
80
251
301
317
87
215
84
336
116
196
195
27
112
329
209
100
161
32
146
2
71
224
73
168
107
308
31
42
30
156
111
203
145
257
70
179
115
235
82
52
320
9
303
3
275
285
78
323
212
304
255
97
53
200
182
170
283
220
244
180
228
61
63
24
316
299
19
261
4
259
216
327
223
280
163
104
96
92
99
65
217
185
86
18
122
205
287
248
213
72
332
237
177
314
305
130
119
136
286
102
45
279
88
66
152
134
141
199
298
302
33
95
1
293
36
46
260
290
173
284
198
265
319
214
21
20
147
181
211
83
37
232
273
55
59
326
166
291
94
271
12
157
118
247
159
328
184
310
274
335
295
253
227
325
174
292
266
164
142
306
26
315
242
51
11
331
148
25
91
79
125
267
289
210
64
337
252
281
29
269
114
219
16
121
204
108
129
221
120
191
197
149
202
93
68
178
131
10
186
144
230
258
47
322
297
132
124
234
172
113
39
249
241
192
98
324
22
294
226
138
60
56
277
264
169
307
54
321
35
38
240
167
126
300
333
151
238
140
272
311
150
243
309
155
229
160
231
246
101
74
188
106
183
162
190
318
330
225
153
128
143
175
89
154
103
43
233
41
194
313
57
189
268
262
6

> <PUBCHEM_MMFF94_PARTIAL_CHARGES>
35
1 -0.08
10 0.06
11 0.2
12 0.57
13 -0.15
14 -0.15
15 0.34
16 0.04
17 0.23
18 0.3
19 -0.14
2 -0.43
20 -0.15
21 -0.15
22 0.66
23 -0.15
24 -0.15
25 0.14
26 -0.15
27 -0.15
3 -0.57
34 0.15
35 0.15
4 -0.57
41 0.15
42 0.15
43 0.15
44 0.15
48 0.15
49 0.15
5 -0.66
6 -0.57
7 0.44
8 -0.14
9 0.18

> <PUBCHEM_EFFECTIVE_ROTOR_COUNT>
9

> <PUBCHEM_PHARMACOPHORE_FEATURES>
6
1 3 acceptor
1 4 acceptor
1 6 acceptor
5 1 6 11 16 17 rings
6 16 17 23 24 26 27 rings
6 8 13 14 19 20 21 rings

> <PUBCHEM_HEAVY_ATOM_COUNT>
27

> <PUBCHEM_ATOM_DEF_STEREO_COUNT>
0

> <PUBCHEM_ATOM_UDEF_STEREO_COUNT>
0

> <PUBCHEM_BOND_DEF_STEREO_COUNT>
0

> <PUBCHEM_BOND_UDEF_STEREO_COUNT>
0

> <PUBCHEM_ISOTOPIC_ATOM_COUNT>
0

> <PUBCHEM_COMPONENT_COUNT>
1

> <PUBCHEM_CACTVS_TAUTO_COUNT>
2

> <PUBCHEM_CONFORMER_ID>
0077BC6800000007

> <PUBCHEM_MMFF94_ENERGY>
54.4853

> <PUBCHEM_FEATURE_SELFOVERLAP>
30.518

> <PUBCHEM_SHAPE_FINGERPRINT>
11244481 83 14348640632506569336
12035759 4 18334015024922017570
12156800 1 17459773572986059610
12422481 6 17196066700302139096
12592029 89 18060418027855599229
128993 33 12389025898244276414
133893 2 17843686796692528789
13947920 75 18114739447582229086
14251757 17 18116434747823728638
17492 54 18337945821977971693
18336668 15 17910990081251411018
19930381 70 17536315830088082391
20905425 154 17828241772463585959
21304303 282 14494380942093004378
238 59 18202001057537176521
2818148 4 18336836312310318019
35225 105 17696430106206419118
445580 8 17829604316183221601
469060 322 17630027283617172035
513532 50 17172685413759622999
6287921 2 16958992373378593435

> <PUBCHEM_SHAPE_MULTIPOLES>
531.93
6.04
3.98
2.75
1.33
0.82
-0.66
-1.75
4.14
0.16
-1.78
0.12
0.78
-1.14

> <PUBCHEM_SHAPE_SELFOVERLAP>
1118.973

> <PUBCHEM_SHAPE_VOLUME>
301.5

> <PUBCHEM_COORDINATE_TYPE>
2
5
10

$$$$

