9104
  -OEChem-06261203242D

 50 57  0     0  0  0  0  0  0999 V2000
    4.7564   -0.3938    0.0000 C   0  0  0  0  0  0  0  0  0  0  0  0
    4.7403    0.6477    0.0000 C   0  0  0  0  0  0  0  0  0  0  0  0
    3.8583   -0.9216    0.0000 C   0  0  0  0  0  0  0  0  0  0  0  0
    3.8743    1.1477    0.0000 C   0  0  0  0  0  0  0  0  0  0  0  0
    5.6335   -0.8566    0.0000 C   0  0  0  0  0  0  0  0  0  0  0  0
    5.6063    1.1477    0.0000 C   0  0  0  0  0  0  0  0  0  0  0  0
    3.8844   -1.9630    0.0000 C   0  0  0  0  0  0  0  0  0  0  0  0
    3.8743    2.1477    0.0000 C   0  0  0  0  0  0  0  0  0  0  0  0
    4.8032   -2.4541    0.0000 C   0  0  0  0  0  0  0  0  0  0  0  0
    4.7403    2.6477    0.0000 C   0  0  0  0  0  0  0  0  0  0  0  0
    2.9643    0.6409    0.0000 C   0  0  0  0  0  0  0  0  0  0  0  0
    2.9562   -0.4007    0.0000 C   0  0  0  0  0  0  0  0  0  0  0  0
    5.6063    2.1477    0.0000 C   0  0  0  0  0  0  0  0  0  0  0  0
    5.6836   -1.8972    0.0000 C   0  0  0  0  0  0  0  0  0  0  0  0
    6.4792   -0.3387    0.0000 C   0  0  0  0  0  0  0  0  0  0  0  0
    6.4658    0.6529    0.0000 C   0  0  0  0  0  0  0  0  0  0  0  0
    2.9643    2.6546    0.0000 C   0  0  0  0  0  0  0  0  0  0  0  0
    2.9542   -2.5218    0.0000 C   0  0  0  0  0  0  0  0  0  0  0  0
    4.7564    3.6892    0.0000 C   0  0  0  0  0  0  0  0  0  0  0  0
    4.8555   -3.5380    0.0000 C   0  0  0  0  0  0  0  0  0  0  0  0
    2.9562    3.6962    0.0000 C   0  0  0  0  0  0  0  0  0  0  0  0
    2.9813   -3.6067    0.0000 C   0  0  0  0  0  0  0  0  0  0  0  0
    3.8583    4.2170    0.0000 C   0  0  0  0  0  0  0  0  0  0  0  0
    3.9384   -4.1182    0.0000 C   0  0  0  0  0  0  0  0  0  0  0  0
    2.0124   -4.1887    0.0000 C   0  0  0  0  0  0  0  0  0  0  0  0
    2.0084    4.2241    0.0000 C   0  0  0  0  0  0  0  0  0  0  0  0
    3.9928   -5.2472    0.0000 C   0  0  0  0  0  0  0  0  0  0  0  0
    3.8751    5.3018    0.0000 C   0  0  0  0  0  0  0  0  0  0  0  0
    2.0406   -5.3187    0.0000 C   0  0  0  0  0  0  0  0  0  0  0  0
    2.0000    5.3091    0.0000 C   0  0  0  0  0  0  0  0  0  0  0  0
    3.0375   -5.8516    0.0000 C   0  0  0  0  0  0  0  0  0  0  0  0
    2.9396    5.8516    0.0000 C   0  0  0  0  0  0  0  0  0  0  0  0
    2.4310    0.9570    0.0000 H   0  0  0  0  0  0  0  0  0  0  0  0
    2.4181   -0.7087    0.0000 H   0  0  0  0  0  0  0  0  0  0  0  0
    6.1433    2.4577    0.0000 H   0  0  0  0  0  0  0  0  0  0  0  0
    6.2338   -2.1831    0.0000 H   0  0  0  0  0  0  0  0  0  0  0  0
    7.0004    0.9669    0.0000 H   0  0  0  0  0  0  0  0  0  0  0  0
    7.0222   -0.6380    0.0000 H   0  0  0  0  0  0  0  0  0  0  0  0
    2.4108   -2.2233    0.0000 H   0  0  0  0  0  0  0  0  0  0  0  0
    2.4310    2.3384    0.0000 H   0  0  0  0  0  0  0  0  0  0  0  0
    5.2968    3.9930    0.0000 H   0  0  0  0  0  0  0  0  0  0  0  0
    5.4056   -3.8240    0.0000 H   0  0  0  0  0  0  0  0  0  0  0  0
    1.4750    3.9079    0.0000 H   0  0  0  0  0  0  0  0  0  0  0  0
    1.4690   -3.8902    0.0000 H   0  0  0  0  0  0  0  0  0  0  0  0
    4.4155    5.6056    0.0000 H   0  0  0  0  0  0  0  0  0  0  0  0
    4.5429   -5.5332    0.0000 H   0  0  0  0  0  0  0  0  0  0  0  0
    1.4619    5.6170    0.0000 H   0  0  0  0  0  0  0  0  0  0  0  0
    1.5129   -5.6441    0.0000 H   0  0  0  0  0  0  0  0  0  0  0  0
    3.0602   -6.4711    0.0000 H   0  0  0  0  0  0  0  0  0  0  0  0
    2.9420    6.4716    0.0000 H   0  0  0  0  0  0  0  0  0  0  0  0
  1  2  1  0  0  0  0
  1  3  2  0  0  0  0
  1  5  1  0  0  0  0
  2  4  2  0  0  0  0
  2  6  1  0  0  0  0
  3  7  1  0  0  0  0
  3 12  1  0  0  0  0
  4  8  1  0  0  0  0
  4 11  1  0  0  0  0
  5 14  2  0  0  0  0
  5 15  1  0  0  0  0
  6 13  2  0  0  0  0
  6 16  1  0  0  0  0
  7  9  1  0  0  0  0
  7 18  2  0  0  0  0
  8 10  1  0  0  0  0
  8 17  2  0  0  0  0
  9 14  1  0  0  0  0
  9 20  2  0  0  0  0
 10 13  1  0  0  0  0
 10 19  2  0  0  0  0
 11 12  2  0  0  0  0
 11 33  1  0  0  0  0
 12 34  1  0  0  0  0
 13 35  1  0  0  0  0
 14 36  1  0  0  0  0
 15 16  2  0  0  0  0
 15 38  1  0  0  0  0
 16 37  1  0  0  0  0
 17 21  1  0  0  0  0
 17 40  1  0  0  0  0
 18 22  1  0  0  0  0
 18 39  1  0  0  0  0
 19 23  1  0  0  0  0
 19 41  1  0  0  0  0
 20 24  1  0  0  0  0
 20 42  1  0  0  0  0
 21 23  1  0  0  0  0
 21 26  2  0  0  0  0
 22 24  1  0  0  0  0
 22 25  2  0  0  0  0
 23 28  2  0  0  0  0
 24 27  2  0  0  0  0
 25 29  1  0  0  0  0
 25 44  1  0  0  0  0
 26 30  1  0  0  0  0
 26 43  1  0  0  0  0
 27 31  1  0  0  0  0
 27 46  1  0  0  0  0
 28 32  1  0  0  0  0
 28 45  1  0  0  0  0
 29 31  2  0  0  0  0
 29 48  1  0  0  0  0
 30 32  2  0  0  0  0
 30 47  1  0  0  0  0
 31 49  1  0  0  0  0
 32 50  1  0  0  0  0
M  END
> <PUBCHEM_COMPOUND_CID>
9104

> <PUBCHEM_COMPOUND_CANONICALIZED>
1

> <PUBCHEM_CACTVS_COMPLEXITY>
649

> <PUBCHEM_CACTVS_HBOND_ACCEPTOR>
0

> <PUBCHEM_CACTVS_HBOND_DONOR>
0

> <PUBCHEM_CACTVS_ROTATABLE_BOND>
0

> <PUBCHEM_CACTVS_SUBSKEYS>
AAADceB8AAAAAAAAAAAAAAAAAAAAAAAAAAAwYMGDAAAAAADBVAAAGAAAAAAADACAGAAwAMAAAACAAiBCAAACAAAgAAAIiAAAAIgIICKAERCAIAAggAAIiAcAgMAOwAACAAAQAACAAAQAACAAAAAAAAAAAA==

> <PUBCHEM_IUPAC_INCHI>
InChI=1S/C32H18/c1-3-7-21-17-29-25(13-19(21)5-1)15-23-9-10-24-16-26-14-20-6-2-4-8-22(20)18-30(26)28-12-11-27(29)31(23)32(24)28/h1-18H

> <PUBCHEM_IUPAC_INCHIKEY>
MZMIZQORNXCFHD-UHFFFAOYSA-N

> <PUBCHEM_XLOGP3_AA>
9.9

> <PUBCHEM_EXACT_MASS>
402.140851

> <PUBCHEM_MOLECULAR_FORMULA>
C32H18

> <PUBCHEM_MOLECULAR_WEIGHT>
402.48532

> <PUBCHEM_OPENEYE_CAN_SMILES>
C1=CC=C2C=C3C4=C5C(=CC3=CC2=C1)C=CC6=CC7=CC8=CC=CC=C8C=C7C(=C65)C=C4

> <PUBCHEM_OPENEYE_ISO_SMILES>
C1=CC=C2C=C3C4=C5C(=CC3=CC2=C1)C=CC6=CC7=CC8=CC=CC=C8C=C7C(=C65)C=C4

> <PUBCHEM_CACTVS_TPSA>
0

> <PUBCHEM_MONOISOTOPIC_WEIGHT>
402.140851

> <PUBCHEM_TOTAL_CHARGE>
0

> <PUBCHEM_HEAVY_ATOM_COUNT>
32

> <PUBCHEM_ATOM_DEF_STEREO_COUNT>
0

> <PUBCHEM_ATOM_UDEF_STEREO_COUNT>
0

> <PUBCHEM_BOND_DEF_STEREO_COUNT>
0

> <PUBCHEM_BOND_UDEF_STEREO_COUNT>
0

> <PUBCHEM_ISOTOPIC_ATOM_COUNT>
0

> <PUBCHEM_COMPONENT_COUNT>
1

> <PUBCHEM_CACTVS_TAUTO_COUNT>
1

> <PUBCHEM_COORDINATE_TYPE>
1
5
255

> <PUBCHEM_BONDANNOTATIONS>
1  2  8
1  3  8
1  5  8
10  13  8
10  19  8
11  12  8
15  16  8
17  21  8
18  22  8
19  23  8
2  4  8
2  6  8
20  24  8
21  23  8
21  26  8
22  24  8
22  25  8
23  28  8
24  27  8
25  29  8
26  30  8
27  31  8
28  32  8
29  31  8
3  12  8
3  7  8
30  32  8
4  11  8
4  8  8
5  14  8
5  15  8
6  13  8
6  16  8
7  18  8
7  9  8
8  10  8
8  17  8
9  14  8
9  20  8

$$$$

