17395493
  -OEChem-06241222502D

 47 50  0     0  0  0  0  0  0999 V2000
    5.9209    1.8437    0.0000 S   0  0  0  0  0  0  0  0  0  0  0  0
    6.8714    1.5330    0.0000 O   0  0  0  0  0  0  0  0  0  0  0  0
    4.9704    2.1544    0.0000 O   0  0  0  0  0  0  0  0  0  0  0  0
    6.2619   -2.7631    0.0000 O   0  0  0  0  0  0  0  0  0  0  0  0
    5.6103    0.8932    0.0000 N   0  0  0  0  0  0  0  0  0  0  0  0
    4.6783   -1.9584    0.0000 N   0  0  0  0  0  0  0  0  0  0  0  0
    4.6783   -3.5678    0.0000 N   0  0  0  0  0  0  0  0  0  0  0  0
    4.9889   -1.0079    0.0000 C   0  0  0  0  0  0  0  0  0  0  0  0
    4.3211   -0.2636    0.0000 C   0  0  0  0  0  0  0  0  0  0  0  0
    5.9674   -0.8016    0.0000 C   0  0  0  0  0  0  0  0  0  0  0  0
    4.6318    0.6870    0.0000 C   0  0  0  0  0  0  0  0  0  0  0  0
    6.2781    0.1489    0.0000 C   0  0  0  0  0  0  0  0  0  0  0  0
    3.7320   -2.2631    0.0000 C   0  0  0  0  0  0  0  0  0  0  0  0
    5.2619   -2.7631    0.0000 C   0  0  0  0  0  0  0  0  0  0  0  0
    6.2316    2.7942    0.0000 C   0  0  0  0  0  0  0  0  0  0  0  0
    3.7320   -3.2631    0.0000 C   0  0  0  0  0  0  0  0  0  0  0  0
    2.8660   -1.7631    0.0000 C   0  0  0  0  0  0  0  0  0  0  0  0
    7.2101    3.0004    0.0000 C   0  0  0  0  0  0  0  0  0  0  0  0
    2.8660   -3.7631    0.0000 C   0  0  0  0  0  0  0  0  0  0  0  0
    2.0000   -2.2631    0.0000 C   0  0  0  0  0  0  0  0  0  0  0  0
    2.0000   -3.2631    0.0000 C   0  0  0  0  0  0  0  0  0  0  0  0
    7.8779    2.2561    0.0000 C   0  0  0  0  0  0  0  0  0  0  0  0
    7.5208    3.9510    0.0000 C   0  0  0  0  0  0  0  0  0  0  0  0
    8.8564    2.4623    0.0000 C   0  0  0  0  0  0  0  0  0  0  0  0
    8.4993    4.1572    0.0000 C   0  0  0  0  0  0  0  0  0  0  0  0
    9.1671    3.4129    0.0000 C   0  0  0  0  0  0  0  0  0  0  0  0
    5.4030   -1.4693    0.0000 H   0  0  0  0  0  0  0  0  0  0  0  0
    3.7742    0.0285    0.0000 H   0  0  0  0  0  0  0  0  0  0  0  0
    3.9385   -0.7515    0.0000 H   0  0  0  0  0  0  0  0  0  0  0  0
    5.9880   -1.4213    0.0000 H   0  0  0  0  0  0  0  0  0  0  0  0
    6.5812   -0.8890    0.0000 H   0  0  0  0  0  0  0  0  0  0  0  0
    4.6112    1.3066    0.0000 H   0  0  0  0  0  0  0  0  0  0  0  0
    4.0179    0.7743    0.0000 H   0  0  0  0  0  0  0  0  0  0  0  0
    6.8250   -0.1431    0.0000 H   0  0  0  0  0  0  0  0  0  0  0  0
    6.6607    0.6368    0.0000 H   0  0  0  0  0  0  0  0  0  0  0  0
    6.2110    3.4139    0.0000 H   0  0  0  0  0  0  0  0  0  0  0  0
    5.6178    2.8816    0.0000 H   0  0  0  0  0  0  0  0  0  0  0  0
    4.8709   -4.1572    0.0000 H   0  0  0  0  0  0  0  0  0  0  0  0
    2.8660   -1.1431    0.0000 H   0  0  0  0  0  0  0  0  0  0  0  0
    2.8660   -4.3831    0.0000 H   0  0  0  0  0  0  0  0  0  0  0  0
    1.4631   -1.9531    0.0000 H   0  0  0  0  0  0  0  0  0  0  0  0
    1.4631   -3.5731    0.0000 H   0  0  0  0  0  0  0  0  0  0  0  0
    7.6853    1.6668    0.0000 H   0  0  0  0  0  0  0  0  0  0  0  0
    7.1067    4.4124    0.0000 H   0  0  0  0  0  0  0  0  0  0  0  0
    9.2705    2.0009    0.0000 H   0  0  0  0  0  0  0  0  0  0  0  0
    8.6919    4.7465    0.0000 H   0  0  0  0  0  0  0  0  0  0  0  0
    9.7738    3.5407    0.0000 H   0  0  0  0  0  0  0  0  0  0  0  0
  1  2  2  0  0  0  0
  1  3  2  0  0  0  0
  1  5  1  0  0  0  0
  1 15  1  0  0  0  0
  4 14  2  0  0  0  0
  5 11  1  0  0  0  0
  5 12  1  0  0  0  0
  6  8  1  0  0  0  0
  6 13  1  0  0  0  0
  6 14  1  0  0  0  0
  7 14  1  0  0  0  0
  7 16  1  0  0  0  0
  7 38  1  0  0  0  0
  8  9  1  0  0  0  0
  8 10  1  0  0  0  0
  8 27  1  0  0  0  0
  9 11  1  0  0  0  0
  9 28  1  0  0  0  0
  9 29  1  0  0  0  0
 10 12  1  0  0  0  0
 10 30  1  0  0  0  0
 10 31  1  0  0  0  0
 11 32  1  0  0  0  0
 11 33  1  0  0  0  0
 12 34  1  0  0  0  0
 12 35  1  0  0  0  0
 13 16  1  0  0  0  0
 13 17  2  0  0  0  0
 15 18  1  0  0  0  0
 15 36  1  0  0  0  0
 15 37  1  0  0  0  0
 16 19  2  0  0  0  0
 17 20  1  0  0  0  0
 17 39  1  0  0  0  0
 18 22  2  0  0  0  0
 18 23  1  0  0  0  0
 19 21  1  0  0  0  0
 19 40  1  0  0  0  0
 20 21  2  0  0  0  0
 20 41  1  0  0  0  0
 21 42  1  0  0  0  0
 22 24  1  0  0  0  0
 22 43  1  0  0  0  0
 23 25  2  0  0  0  0
 23 44  1  0  0  0  0
 24 26  2  0  0  0  0
 24 45  1  0  0  0  0
 25 26  1  0  0  0  0
 25 46  1  0  0  0  0
 26 47  1  0  0  0  0
M  END
> <PUBCHEM_COMPOUND_CID>
17395493

> <PUBCHEM_COMPOUND_CANONICALIZED>
1

> <PUBCHEM_CACTVS_COMPLEXITY>
604

> <PUBCHEM_CACTVS_HBOND_ACCEPTOR>
4

> <PUBCHEM_CACTVS_HBOND_DONOR>
1

> <PUBCHEM_CACTVS_ROTATABLE_BOND>
4

> <PUBCHEM_CACTVS_SUBSKEYS>
AAADceB7MABAAAAAAAAAAAAAAAAAAWAAAAA8YIAAAAAAAFgBQAAAHgQQQAAADCjFWASxwIPAAAKIAiRCUHDCAAAhAgAIiAAIdIiIYCLA0ZGUIAholgLIyCcQgAAOAAAAAAAAACAAAAAAAAAAQAAAAAAAAA==

> <PUBCHEM_IUPAC_OPENEYE_NAME>
3-(1-benzylsulfonyl-4-piperidyl)-1H-benzimidazol-2-one

> <PUBCHEM_IUPAC_CAS_NAME>
3-[1-(phenylmethyl)sulfonyl-4-piperidinyl]-1H-benzimidazol-2-one

> <PUBCHEM_IUPAC_NAME>
3-(1-benzylsulfonylpiperidin-4-yl)-1H-benzimidazol-2-one

> <PUBCHEM_IUPAC_SYSTEMATIC_NAME>
3-[1-(phenylmethyl)sulfonylpiperidin-4-yl]-1H-benzimidazol-2-one

> <PUBCHEM_IUPAC_TRADITIONAL_NAME>
3-(1-benzylsulfonyl-4-piperidyl)-1H-benzimidazol-2-one

> <PUBCHEM_IUPAC_INCHI>
InChI=1S/C19H21N3O3S/c23-19-20-17-8-4-5-9-18(17)22(19)16-10-12-21(13-11-16)26(24,25)14-15-6-2-1-3-7-15/h1-9,16H,10-14H2,(H,20,23)

> <PUBCHEM_IUPAC_INCHIKEY>
CNFLHXRRTNMXKU-UHFFFAOYSA-N

> <PUBCHEM_XLOGP3>
2.7

> <PUBCHEM_EXACT_MASS>
371.130363

> <PUBCHEM_MOLECULAR_FORMULA>
C19H21N3O3S

> <PUBCHEM_MOLECULAR_WEIGHT>
371.45334

> <PUBCHEM_OPENEYE_CAN_SMILES>
C1CN(CCC1N2C3=CC=CC=C3NC2=O)S(=O)(=O)CC4=CC=CC=C4

> <PUBCHEM_OPENEYE_ISO_SMILES>
C1CN(CCC1N2C3=CC=CC=C3NC2=O)S(=O)(=O)CC4=CC=CC=C4

> <PUBCHEM_CACTVS_TPSA>
78.1

> <PUBCHEM_MONOISOTOPIC_WEIGHT>
371.130363

> <PUBCHEM_TOTAL_CHARGE>
0

> <PUBCHEM_HEAVY_ATOM_COUNT>
26

> <PUBCHEM_ATOM_DEF_STEREO_COUNT>
0

> <PUBCHEM_ATOM_UDEF_STEREO_COUNT>
0

> <PUBCHEM_BOND_DEF_STEREO_COUNT>
0

> <PUBCHEM_BOND_UDEF_STEREO_COUNT>
0

> <PUBCHEM_ISOTOPIC_ATOM_COUNT>
0

> <PUBCHEM_COMPONENT_COUNT>
1

> <PUBCHEM_CACTVS_TAUTO_COUNT>
2

> <PUBCHEM_COORDINATE_TYPE>
1
5
255

> <PUBCHEM_BONDANNOTATIONS>
13  16  8
13  17  8
16  19  8
17  20  8
18  22  8
18  23  8
19  21  8
20  21  8
22  24  8
23  25  8
24  26  8
25  26  8
6  13  8
6  14  8
7  14  8
7  16  8

$$$$

