17395957
  -OEChem-06241222532D

 40 42  0     0  0  0  0  0  0999 V2000
    2.6691   -0.9067    0.0000 S   0  0  0  0  0  0  0  0  0  0  0  0
    6.1808   -2.0000    0.0000 O   0  0  0  0  0  0  0  0  0  0  0  0
    9.6448    2.0000    0.0000 O   0  0  0  0  0  0  0  0  0  0  0  0
    7.0468   -0.5000    0.0000 N   0  0  0  0  0  0  0  0  0  0  0  0
    9.6448   -1.0000    0.0000 N   0  0  0  0  0  0  0  0  0  0  0  0
    8.7788    0.5000    0.0000 N   0  0  0  0  0  0  0  0  0  0  0  0
    7.9128   -1.0000    0.0000 C   0  0  0  0  0  0  0  0  0  0  0  0
    5.3147   -0.5000    0.0000 C   0  0  0  0  0  0  0  0  0  0  0  0
    4.4487   -1.0000    0.0000 C   0  0  0  0  0  0  0  0  0  0  0  0
    8.7788   -0.5000    0.0000 C   0  0  0  0  0  0  0  0  0  0  0  0
    6.1808   -1.0000    0.0000 C   0  0  0  0  0  0  0  0  0  0  0  0
   10.5109   -0.5000    0.0000 C   0  0  0  0  0  0  0  0  0  0  0  0
   10.5109    0.5000    0.0000 C   0  0  0  0  0  0  0  0  0  0  0  0
    7.0468    0.5000    0.0000 C   0  0  0  0  0  0  0  0  0  0  0  0
    3.5827   -0.5000    0.0000 C   0  0  0  0  0  0  0  0  0  0  0  0
    9.6448    1.0000    0.0000 C   0  0  0  0  0  0  0  0  0  0  0  0
   11.4048   -1.0347    0.0000 C   0  0  0  0  0  0  0  0  0  0  0  0
   11.4048    1.0347    0.0000 C   0  0  0  0  0  0  0  0  0  0  0  0
    3.4782    0.4945    0.0000 C   0  0  0  0  0  0  0  0  0  0  0  0
   12.3109   -0.5208    0.0000 C   0  0  0  0  0  0  0  0  0  0  0  0
   12.3109    0.5208    0.0000 C   0  0  0  0  0  0  0  0  0  0  0  0
    2.5000    0.7024    0.0000 C   0  0  0  0  0  0  0  0  0  0  0  0
    2.0000   -0.1636    0.0000 C   0  0  0  0  0  0  0  0  0  0  0  0
    7.5143   -1.4750    0.0000 H   0  0  0  0  0  0  0  0  0  0  0  0
    8.3113   -1.4750    0.0000 H   0  0  0  0  0  0  0  0  0  0  0  0
    5.7133   -0.0251    0.0000 H   0  0  0  0  0  0  0  0  0  0  0  0
    4.9162   -0.0251    0.0000 H   0  0  0  0  0  0  0  0  0  0  0  0
    4.0502   -1.4750    0.0000 H   0  0  0  0  0  0  0  0  0  0  0  0
    4.8472   -1.4750    0.0000 H   0  0  0  0  0  0  0  0  0  0  0  0
    9.6448   -1.6200    0.0000 H   0  0  0  0  0  0  0  0  0  0  0  0
    7.6668    0.5000    0.0000 H   0  0  0  0  0  0  0  0  0  0  0  0
    7.0468    1.1200    0.0000 H   0  0  0  0  0  0  0  0  0  0  0  0
    6.4268    0.5000    0.0000 H   0  0  0  0  0  0  0  0  0  0  0  0
   11.3977   -1.6546    0.0000 H   0  0  0  0  0  0  0  0  0  0  0  0
   11.3977    1.6546    0.0000 H   0  0  0  0  0  0  0  0  0  0  0  0
    3.9389    0.9094    0.0000 H   0  0  0  0  0  0  0  0  0  0  0  0
   12.8466   -0.8329    0.0000 H   0  0  0  0  0  0  0  0  0  0  0  0
   12.8466    0.8329    0.0000 H   0  0  0  0  0  0  0  0  0  0  0  0
    2.2478    1.2688    0.0000 H   0  0  0  0  0  0  0  0  0  0  0  0
    1.3834   -0.2284    0.0000 H   0  0  0  0  0  0  0  0  0  0  0  0
  1 15  1  0  0  0  0
  1 23  1  0  0  0  0
  2 11  2  0  0  0  0
  3 16  2  0  0  0  0
  4  7  1  0  0  0  0
  4 11  1  0  0  0  0
  4 14  1  0  0  0  0
  5 10  1  0  0  0  0
  5 12  1  0  0  0  0
  5 30  1  0  0  0  0
  6 10  2  0  0  0  0
  6 16  1  0  0  0  0
  7 10  1  0  0  0  0
  7 24  1  0  0  0  0
  7 25  1  0  0  0  0
  8  9  1  0  0  0  0
  8 11  1  0  0  0  0
  8 26  1  0  0  0  0
  8 27  1  0  0  0  0
  9 15  1  0  0  0  0
  9 28  1  0  0  0  0
  9 29  1  0  0  0  0
 12 13  1  0  0  0  0
 12 17  2  0  0  0  0
 13 16  1  0  0  0  0
 13 18  2  0  0  0  0
 14 31  1  0  0  0  0
 14 32  1  0  0  0  0
 14 33  1  0  0  0  0
 15 19  2  0  0  0  0
 17 20  1  0  0  0  0
 17 34  1  0  0  0  0
 18 21  1  0  0  0  0
 18 35  1  0  0  0  0
 19 22  1  0  0  0  0
 19 36  1  0  0  0  0
 20 21  2  0  0  0  0
 20 37  1  0  0  0  0
 21 38  1  0  0  0  0
 22 23  2  0  0  0  0
 22 39  1  0  0  0  0
 23 40  1  0  0  0  0
M  END
> <PUBCHEM_COMPOUND_CID>
17395957

> <PUBCHEM_COMPOUND_CANONICALIZED>
1

> <PUBCHEM_CACTVS_COMPLEXITY>
494

> <PUBCHEM_CACTVS_HBOND_ACCEPTOR>
3

> <PUBCHEM_CACTVS_HBOND_DONOR>
1

> <PUBCHEM_CACTVS_ROTATABLE_BOND>
5

> <PUBCHEM_CACTVS_SUBSKEYS>
AAADceB7MABAAAAAAAAAAAAAAAAAASAAAAAwQAAAAAAAAACBwAAAHgQQAAAADAjF2ASzwYPAAAisAidydACDAIElChBJiBkYZMgIYDrg3ZGUIYhglgDoyccYiACOAAAAAAACAAAAAAAAAAQAAAAAAAAAAA==

> <PUBCHEM_IUPAC_OPENEYE_NAME>
N-methyl-N-[(4-oxo-1H-quinazolin-2-yl)methyl]-3-(2-thienyl)propanamide

> <PUBCHEM_IUPAC_CAS_NAME>
N-methyl-N-[(4-oxo-1H-quinazolin-2-yl)methyl]-3-thiophen-2-ylpropanamide

> <PUBCHEM_IUPAC_NAME>
N-methyl-N-[(4-oxo-1H-quinazolin-2-yl)methyl]-3-thiophen-2-ylpropanamide

> <PUBCHEM_IUPAC_SYSTEMATIC_NAME>
N-methyl-N-[(4-oxidanylidene-1H-quinazolin-2-yl)methyl]-3-thiophen-2-yl-propanamide

> <PUBCHEM_IUPAC_TRADITIONAL_NAME>
N-[(4-keto-1H-quinazolin-2-yl)methyl]-N-methyl-3-(2-thienyl)propionamide

> <PUBCHEM_IUPAC_INCHI>
InChI=1S/C17H17N3O2S/c1-20(16(21)9-8-12-5-4-10-23-12)11-15-18-14-7-3-2-6-13(14)17(22)19-15/h2-7,10H,8-9,11H2,1H3,(H,18,19,22)

> <PUBCHEM_IUPAC_INCHIKEY>
GVGGXDAVOFZYHU-UHFFFAOYSA-N

> <PUBCHEM_XLOGP3_AA>
1.8

> <PUBCHEM_EXACT_MASS>
327.104148

> <PUBCHEM_MOLECULAR_FORMULA>
C17H17N3O2S

> <PUBCHEM_MOLECULAR_WEIGHT>
327.40078

> <PUBCHEM_OPENEYE_CAN_SMILES>
CN(CC1=NC(=O)C2=CC=CC=C2N1)C(=O)CCC3=CC=CS3

> <PUBCHEM_OPENEYE_ISO_SMILES>
CN(CC1=NC(=O)C2=CC=CC=C2N1)C(=O)CCC3=CC=CS3

> <PUBCHEM_CACTVS_TPSA>
90

> <PUBCHEM_MONOISOTOPIC_WEIGHT>
327.104148

> <PUBCHEM_TOTAL_CHARGE>
0

> <PUBCHEM_HEAVY_ATOM_COUNT>
23

> <PUBCHEM_ATOM_DEF_STEREO_COUNT>
0

> <PUBCHEM_ATOM_UDEF_STEREO_COUNT>
0

> <PUBCHEM_BOND_DEF_STEREO_COUNT>
0

> <PUBCHEM_BOND_UDEF_STEREO_COUNT>
0

> <PUBCHEM_ISOTOPIC_ATOM_COUNT>
0

> <PUBCHEM_COMPONENT_COUNT>
1

> <PUBCHEM_CACTVS_TAUTO_COUNT>
10

> <PUBCHEM_COORDINATE_TYPE>
1
5
255

> <PUBCHEM_BONDANNOTATIONS>
1  15  8
1  23  8
12  13  8
12  17  8
13  16  8
13  18  8
15  19  8
17  20  8
18  21  8
19  22  8
20  21  8
22  23  8
5  10  8
5  12  8
6  10  8
6  16  8

$$$$

