10544
  -OEChem-06261204402D

 21 20  0     0  0  0  0  0  0999 V2000
    4.2690    0.0000    0.0000 P   0  3  0  0  0  0  0  0  0  0  0  0
    4.2690   -1.7320    0.0000 O   0  0  0  0  0  0  0  0  0  0  0  0
    4.2690    1.7320    0.0000 O   0  0  0  0  0  0  0  0  0  0  0  0
    2.5369    0.0000    0.0000 O   0  0  0  0  0  0  0  0  0  0  0  0
    6.0010    0.0000    0.0000 O   0  0  0  0  0  0  0  0  0  0  0  0
    5.1350    0.5000    0.0000 C   0  0  0  0  0  0  0  0  0  0  0  0
    3.4030   -0.5000    0.0000 C   0  0  0  0  0  0  0  0  0  0  0  0
    3.7690    0.8660    0.0000 C   0  0  0  0  0  0  0  0  0  0  0  0
    4.7690   -0.8660    0.0000 C   0  0  0  0  0  0  0  0  0  0  0  0
    5.5335    0.9749    0.0000 H   0  0  0  0  0  0  0  0  0  0  0  0
    4.7365    0.9749    0.0000 H   0  0  0  0  0  0  0  0  0  0  0  0
    3.0044   -0.9749    0.0000 H   0  0  0  0  0  0  0  0  0  0  0  0
    3.8015   -0.9749    0.0000 H   0  0  0  0  0  0  0  0  0  0  0  0
    3.2940    1.2646    0.0000 H   0  0  0  0  0  0  0  0  0  0  0  0
    3.2940    0.4675    0.0000 H   0  0  0  0  0  0  0  0  0  0  0  0
    5.2439   -1.2646    0.0000 H   0  0  0  0  0  0  0  0  0  0  0  0
    5.2439   -0.4675    0.0000 H   0  0  0  0  0  0  0  0  0  0  0  0
    6.5380    0.3100    0.0000 H   0  0  0  0  0  0  0  0  0  0  0  0
    2.0000   -0.3100    0.0000 H   0  0  0  0  0  0  0  0  0  0  0  0
    3.9590    2.2690    0.0000 H   0  0  0  0  0  0  0  0  0  0  0  0
    4.5790   -2.2690    0.0000 H   0  0  0  0  0  0  0  0  0  0  0  0
  1  6  1  0  0  0  0
  1  7  1  0  0  0  0
  1  8  1  0  0  0  0
  1  9  1  0  0  0  0
  2  9  1  0  0  0  0
  2 21  1  0  0  0  0
  3  8  1  0  0  0  0
  3 20  1  0  0  0  0
  4  7  1  0  0  0  0
  4 19  1  0  0  0  0
  5  6  1  0  0  0  0
  5 18  1  0  0  0  0
  6 10  1  0  0  0  0
  6 11  1  0  0  0  0
  7 12  1  0  0  0  0
  7 13  1  0  0  0  0
  8 14  1  0  0  0  0
  8 15  1  0  0  0  0
  9 16  1  0  0  0  0
  9 17  1  0  0  0  0
M  CHG  1   1   1
M  END
> <PUBCHEM_COMPOUND_CID>
10544

> <PUBCHEM_COMPOUND_CANONICALIZED>
1

> <PUBCHEM_CACTVS_COMPLEXITY>
55.5

> <PUBCHEM_CACTVS_HBOND_ACCEPTOR>
4

> <PUBCHEM_CACTVS_HBOND_DONOR>
4

> <PUBCHEM_CACTVS_ROTATABLE_BOND>
4

> <PUBCHEM_CACTVS_SUBSKEYS>
AAADccBgOAIAAAAAAAAAAAAAAAAAAAAAAAAAAAAAAAAAAAAAAAAAEggACAAAAAAAAAIAAAAAAiAAAAAAAAAAAAAAAAAAAAAAAAAAEAAAAAAAAAAAAAAAAAAAAAAAAAAAAAAAAAAAAAAAAAAAAAAAAAAAAA==

> <PUBCHEM_IUPAC_OPENEYE_NAME>
tetrakis(hydroxymethyl)phosphonium

> <PUBCHEM_IUPAC_CAS_NAME>
tetrakis(hydroxymethyl)phosphonium

> <PUBCHEM_IUPAC_NAME>
tetrakis(hydroxymethyl)phosphanium

> <PUBCHEM_IUPAC_SYSTEMATIC_NAME>
tetrakis(hydroxymethyl)phosphanium

> <PUBCHEM_IUPAC_TRADITIONAL_NAME>
tetramethylolphosphonium

> <PUBCHEM_IUPAC_INCHI>
InChI=1S/C4H12O4P/c5-1-9(2-6,3-7)4-8/h5-8H,1-4H2/q+1

> <PUBCHEM_IUPAC_INCHIKEY>
FAUOSXUSCVJWAY-UHFFFAOYSA-N

> <PUBCHEM_XLOGP3_AA>
-2.4

> <PUBCHEM_EXACT_MASS>
155.04732

> <PUBCHEM_MOLECULAR_FORMULA>
C4H12O4P+

> <PUBCHEM_MOLECULAR_WEIGHT>
155.109442

> <PUBCHEM_OPENEYE_CAN_SMILES>
C(O)[P+](CO)(CO)CO

> <PUBCHEM_OPENEYE_ISO_SMILES>
C(O)[P+](CO)(CO)CO

> <PUBCHEM_CACTVS_TPSA>
80.9

> <PUBCHEM_MONOISOTOPIC_WEIGHT>
155.04732

> <PUBCHEM_TOTAL_CHARGE>
1

> <PUBCHEM_HEAVY_ATOM_COUNT>
9

> <PUBCHEM_ATOM_DEF_STEREO_COUNT>
0

> <PUBCHEM_ATOM_UDEF_STEREO_COUNT>
0

> <PUBCHEM_BOND_DEF_STEREO_COUNT>
0

> <PUBCHEM_BOND_UDEF_STEREO_COUNT>
0

> <PUBCHEM_ISOTOPIC_ATOM_COUNT>
0

> <PUBCHEM_COMPONENT_COUNT>
1

> <PUBCHEM_CACTVS_TAUTO_COUNT>
1

> <PUBCHEM_COORDINATE_TYPE>
1
5
255

$$$$

