12417
  -OEChem-06261206552D

 16 15  0     0  0  0  0  0  0999 V2000
    4.5981   -0.1270    0.0000 O   0  0  0  0  0  0  0  0  0  0  0  0
    2.8660   -0.1270    0.0000 C   0  0  0  0  0  0  0  0  0  0  0  0
    2.0000   -0.6270    0.0000 C   0  0  0  0  0  0  0  0  0  0  0  0
    2.3660    0.7390    0.0000 C   0  0  0  0  0  0  0  0  0  0  0  0
    3.3660   -0.9930    0.0000 C   0  0  0  0  0  0  0  0  0  0  0  0
    3.7320    0.3730    0.0000 C   0  0  0  0  0  0  0  0  0  0  0  0
    1.6900   -0.0901    0.0000 H   0  0  0  0  0  0  0  0  0  0  0  0
    1.4631   -0.9370    0.0000 H   0  0  0  0  0  0  0  0  0  0  0  0
    2.3100   -1.1639    0.0000 H   0  0  0  0  0  0  0  0  0  0  0  0
    2.9030    1.0490    0.0000 H   0  0  0  0  0  0  0  0  0  0  0  0
    2.0560    1.2760    0.0000 H   0  0  0  0  0  0  0  0  0  0  0  0
    1.8291    0.4290    0.0000 H   0  0  0  0  0  0  0  0  0  0  0  0
    2.8291   -1.3030    0.0000 H   0  0  0  0  0  0  0  0  0  0  0  0
    3.6760   -1.5300    0.0000 H   0  0  0  0  0  0  0  0  0  0  0  0
    3.9030   -0.6830    0.0000 H   0  0  0  0  0  0  0  0  0  0  0  0
    3.7320    0.9930    0.0000 H   0  0  0  0  0  0  0  0  0  0  0  0
  1  6  2  0  0  0  0
  2  3  1  0  0  0  0
  2  4  1  0  0  0  0
  2  5  1  0  0  0  0
  2  6  1  0  0  0  0
  3  7  1  0  0  0  0
  3  8  1  0  0  0  0
  3  9  1  0  0  0  0
  4 10  1  0  0  0  0
  4 11  1  0  0  0  0
  4 12  1  0  0  0  0
  5 13  1  0  0  0  0
  5 14  1  0  0  0  0
  5 15  1  0  0  0  0
  6 16  1  0  0  0  0
M  END
> <PUBCHEM_COMPOUND_CID>
12417

> <PUBCHEM_COMPOUND_CANONICALIZED>
1

> <PUBCHEM_CACTVS_COMPLEXITY>
49.4

> <PUBCHEM_CACTVS_HBOND_ACCEPTOR>
1

> <PUBCHEM_CACTVS_HBOND_DONOR>
0

> <PUBCHEM_CACTVS_ROTATABLE_BOND>
1

> <PUBCHEM_CACTVS_SUBSKEYS>
AAADccBgIAAAAAAAAAAAAAAAAAAAAAAAAAAAAAAAAAAAAAAAAAAAGgAAAAAADgCggAICAAAAAAAIAAgQgAAAAAAAAAAAAAEAAAAAAAAAAAAAAAAAAAAAAAAAAAAAAAAAAAAAAAAAAAAAAAAAAAAAAAAAAA==

> <PUBCHEM_IUPAC_OPENEYE_NAME>
2,2-dimethylpropanal

> <PUBCHEM_IUPAC_CAS_NAME>
2,2-dimethylpropanal

> <PUBCHEM_IUPAC_NAME>
2,2-dimethylpropanal

> <PUBCHEM_IUPAC_SYSTEMATIC_NAME>
2,2-dimethylpropanal

> <PUBCHEM_IUPAC_TRADITIONAL_NAME>
2,2-dimethylpropionaldehyde

> <PUBCHEM_IUPAC_INCHI>
InChI=1S/C5H10O/c1-5(2,3)4-6/h4H,1-3H3

> <PUBCHEM_IUPAC_INCHIKEY>
FJJYHTVHBVXEEQ-UHFFFAOYSA-N

> <PUBCHEM_XLOGP3_AA>
1.1

> <PUBCHEM_EXACT_MASS>
86.073165

> <PUBCHEM_MOLECULAR_FORMULA>
C5H10O

> <PUBCHEM_MOLECULAR_WEIGHT>
86.1323

> <PUBCHEM_OPENEYE_CAN_SMILES>
CC(C)(C)C=O

> <PUBCHEM_OPENEYE_ISO_SMILES>
CC(C)(C)C=O

> <PUBCHEM_CACTVS_TPSA>
17.1

> <PUBCHEM_MONOISOTOPIC_WEIGHT>
86.073165

> <PUBCHEM_TOTAL_CHARGE>
0

> <PUBCHEM_HEAVY_ATOM_COUNT>
6

> <PUBCHEM_ATOM_DEF_STEREO_COUNT>
0

> <PUBCHEM_ATOM_UDEF_STEREO_COUNT>
0

> <PUBCHEM_BOND_DEF_STEREO_COUNT>
0

> <PUBCHEM_BOND_UDEF_STEREO_COUNT>
0

> <PUBCHEM_ISOTOPIC_ATOM_COUNT>
0

> <PUBCHEM_COMPONENT_COUNT>
1

> <PUBCHEM_CACTVS_TAUTO_COUNT>
1

> <PUBCHEM_COORDINATE_TYPE>
1
5
255

$$$$

