854088
  -OEChem-06241222472D

 43 45  0     1  0  0  0  0  0999 V2000
    5.1566    0.3988    0.0000 O   0  0  0  0  0  0  0  0  0  0  0  0
    8.0958   -0.1743    0.0000 N   0  3  0  0  0  0  0  0  0  0  0  0
    8.3546    0.7916    0.0000 C   0  0  0  0  0  0  0  0  0  0  0  0
    5.8637   -0.3083    0.0000 C   0  0  1  0  0  0  0  0  0  0  0  0
    7.1180    1.6402    0.0000 C   0  0  0  0  0  0  0  0  0  0  0  0
    9.9277   -0.9331    0.0000 C   0  0  0  0  0  0  0  0  0  0  0  0
    7.9840    2.1402    0.0000 C   0  0  0  0  0  0  0  0  0  0  0  0
   10.1865    0.0328    0.0000 C   0  0  0  0  0  0  0  0  0  0  0  0
    6.3637   -1.1743    0.0000 C   0  0  0  0  0  0  0  0  0  0  0  0
    7.8369   -1.1402    0.0000 C   0  0  0  0  0  0  0  0  0  0  0  0
    4.8978   -0.5671    0.0000 C   0  0  0  0  0  0  0  0  0  0  0  0
    6.1049   -2.1402    0.0000 C   0  0  0  0  0  0  0  0  0  0  0  0
    4.1907    0.1400    0.0000 C   0  0  0  0  0  0  0  0  0  0  0  0
    4.6390   -1.5330    0.0000 C   0  0  0  0  0  0  0  0  0  0  0  0
    3.2247   -0.1188    0.0000 C   0  0  0  0  0  0  0  0  0  0  0  0
    3.6730   -1.7919    0.0000 C   0  0  0  0  0  0  0  0  0  0  0  0
    2.9659   -1.0848    0.0000 C   0  0  0  0  0  0  0  0  0  0  0  0
    2.5176    0.5883    0.0000 C   0  0  0  0  0  0  0  0  0  0  0  0
    2.0000   -1.3436    0.0000 C   0  0  0  0  0  0  0  0  0  0  0  0
    8.3617    0.1716    0.0000 H   0  0  0  0  0  0  0  0  0  0  0  0
    9.7156   -1.5158    0.0000 H   0  0  0  0  0  0  0  0  0  0  0  0
   10.5190   -1.1196    0.0000 H   0  0  0  0  0  0  0  0  0  0  0  0
    6.8132    2.1802    0.0000 H   0  0  0  0  0  0  0  0  0  0  0  0
    6.5751    1.3408    0.0000 H   0  0  0  0  0  0  0  0  0  0  0  0
   10.7778   -0.1536    0.0000 H   0  0  0  0  0  0  0  0  0  0  0  0
   10.3986    0.6154    0.0000 H   0  0  0  0  0  0  0  0  0  0  0  0
    8.5657    2.3548    0.0000 H   0  0  0  0  0  0  0  0  0  0  0  0
    7.7208    2.7016    0.0000 H   0  0  0  0  0  0  0  0  0  0  0  0
    7.2381   -0.9798    0.0000 H   0  0  0  0  0  0  0  0  0  0  0  0
    7.6765   -1.7391    0.0000 H   0  0  0  0  0  0  0  0  0  0  0  0
    8.4358   -1.3007    0.0000 H   0  0  0  0  0  0  0  0  0  0  0  0
    5.5060   -2.3007    0.0000 H   0  0  0  0  0  0  0  0  0  0  0  0
    6.5433   -2.5786    0.0000 H   0  0  0  0  0  0  0  0  0  0  0  0
    5.3171    0.9977    0.0000 H   0  0  0  0  0  0  0  0  0  0  0  0
    4.3511    0.7389    0.0000 H   0  0  0  0  0  0  0  0  0  0  0  0
    5.0774   -1.9714    0.0000 H   0  0  0  0  0  0  0  0  0  0  0  0
    3.5126   -2.3907    0.0000 H   0  0  0  0  0  0  0  0  0  0  0  0
    2.9560    1.0267    0.0000 H   0  0  0  0  0  0  0  0  0  0  0  0
    2.0792    1.0267    0.0000 H   0  0  0  0  0  0  0  0  0  0  0  0
    2.0792    0.1499    0.0000 H   0  0  0  0  0  0  0  0  0  0  0  0
    1.8395   -0.7447    0.0000 H   0  0  0  0  0  0  0  0  0  0  0  0
    1.4011   -1.5040    0.0000 H   0  0  0  0  0  0  0  0  0  0  0  0
    2.1605   -1.9424    0.0000 H   0  0  0  0  0  0  0  0  0  0  0  0
  4  1  1  1  0  0  0
  1 34  1  0  0  0  0
  2  5  1  0  0  0  0
  2  6  1  0  0  0  0
  2  9  1  0  0  0  0
  2 10  1  0  0  0  0
  3  4  1  0  0  0  0
  3  7  1  0  0  0  0
  3  8  1  0  0  0  0
  3 20  1  0  0  0  0
  4  9  1  0  0  0  0
  4 11  1  0  0  0  0
  5  7  1  0  0  0  0
  5 23  1  0  0  0  0
  5 24  1  0  0  0  0
  6  8  1  0  0  0  0
  6 21  1  0  0  0  0
  6 22  1  0  0  0  0
  7 27  1  0  0  0  0
  7 28  1  0  0  0  0
  8 25  1  0  0  0  0
  8 26  1  0  0  0  0
  9 12  2  0  0  0  0
 10 29  1  0  0  0  0
 10 30  1  0  0  0  0
 10 31  1  0  0  0  0
 11 13  2  0  0  0  0
 11 14  1  0  0  0  0
 12 32  1  0  0  0  0
 12 33  1  0  0  0  0
 13 15  1  0  0  0  0
 13 35  1  0  0  0  0
 14 16  2  0  0  0  0
 14 36  1  0  0  0  0
 15 17  2  0  0  0  0
 15 18  1  0  0  0  0
 16 17  1  0  0  0  0
 16 37  1  0  0  0  0
 17 19  1  0  0  0  0
 18 38  1  0  0  0  0
 18 39  1  0  0  0  0
 18 40  1  0  0  0  0
 19 41  1  0  0  0  0
 19 42  1  0  0  0  0
 19 43  1  0  0  0  0
M  CHG  1   2   1
M  END
> <PUBCHEM_COMPOUND_CID>
854088

> <PUBCHEM_COMPOUND_CANONICALIZED>
1

> <PUBCHEM_CACTVS_COMPLEXITY>
383

> <PUBCHEM_CACTVS_HBOND_ACCEPTOR>
1

> <PUBCHEM_CACTVS_HBOND_DONOR>
1

> <PUBCHEM_CACTVS_ROTATABLE_BOND>
1

> <PUBCHEM_CACTVS_SUBSKEYS>
AAADceB6IAAAAAAAAAAAAAAAAAAAAAAAAAA8WLEAAAAAAAABAAAAHgAACAAADUzBmAQyAIMAAgCAAiRCQAACAAAgAgAIiAAICIgKJiKAkRGEcAAkwAGYmAewwPAOwAACAAAQAACAAAQAACAAAAAAAAAAAA==

> <PUBCHEM_IUPAC_OPENEYE_NAME>
(3R)-3-(3,4-dimethylphenyl)-1-methyl-2-methylene-quinuclidin-1-ium-3-ol

> <PUBCHEM_IUPAC_CAS_NAME>
(3R)-3-(3,4-dimethylphenyl)-1-methyl-2-methylene-1-azoniabicyclo[2.2.2]octan-3-ol

> <PUBCHEM_IUPAC_NAME>
(3R)-3-(3,4-dimethylphenyl)-1-methyl-2-methylidene-1-azoniabicyclo[2.2.2]octan-3-ol

> <PUBCHEM_IUPAC_SYSTEMATIC_NAME>
(3R)-3-(3,4-dimethylphenyl)-1-methyl-2-methylidene-1-azoniabicyclo[2.2.2]octan-3-ol

> <PUBCHEM_IUPAC_TRADITIONAL_NAME>
(3R)-3-(3,4-dimethylphenyl)-1-methyl-2-methylene-quinuclidin-1-ium-3-ol

> <PUBCHEM_IUPAC_INCHI>
InChI=1S/C17H24NO/c1-12-5-6-16(11-13(12)2)17(19)14(3)18(4)9-7-15(17)8-10-18/h5-6,11,15,19H,3,7-10H2,1-2,4H3/q+1/t15?,17-,18?/m1/s1

> <PUBCHEM_IUPAC_INCHIKEY>
LTNJKVDNWYLFGC-IIIMJFFVSA-N

> <PUBCHEM_XLOGP3_AA>
2.7

> <PUBCHEM_EXACT_MASS>
258.185789

> <PUBCHEM_MOLECULAR_FORMULA>
C17H24NO+

> <PUBCHEM_MOLECULAR_WEIGHT>
258.37856

> <PUBCHEM_OPENEYE_CAN_SMILES>
CC1=C(C=C(C=C1)C2(C3CC[N+](C2=C)(CC3)C)O)C

> <PUBCHEM_OPENEYE_ISO_SMILES>
CC1=C(C=C(C=C1)[C@@]2(C3CC[N+](C2=C)(CC3)C)O)C

> <PUBCHEM_CACTVS_TPSA>
20.2

> <PUBCHEM_MONOISOTOPIC_WEIGHT>
258.185789

> <PUBCHEM_TOTAL_CHARGE>
1

> <PUBCHEM_HEAVY_ATOM_COUNT>
19

> <PUBCHEM_ATOM_DEF_STEREO_COUNT>
1

> <PUBCHEM_ATOM_UDEF_STEREO_COUNT>
0

> <PUBCHEM_BOND_DEF_STEREO_COUNT>
0

> <PUBCHEM_BOND_UDEF_STEREO_COUNT>
0

> <PUBCHEM_ISOTOPIC_ATOM_COUNT>
0

> <PUBCHEM_COMPONENT_COUNT>
1

> <PUBCHEM_CACTVS_TAUTO_COUNT>
1

> <PUBCHEM_COORDINATE_TYPE>
1
5
255

> <PUBCHEM_BONDANNOTATIONS>
4  1  5
11  13  8
11  14  8
13  15  8
14  16  8
15  17  8
16  17  8

$$$$

