47205148
  -OEChem-06241222583D

 41 41  0     1  0  0  0  0  0999 V2000
   -2.6020    0.9785   -1.6142 O   0  0  0  0  0  0  0  0  0  0  0  0
   -1.0610   -0.9153    1.5412 O   0  0  0  0  0  0  0  0  0  0  0  0
    4.9728    1.6578   -0.5998 O   0  0  0  0  0  0  0  0  0  0  0  0
   -2.1768   -1.4090   -0.4323 N   0  0  0  0  0  0  0  0  0  0  0  0
   -3.8031    1.7322    0.2160 N   0  0  0  0  0  0  0  0  0  0  0  0
   -0.0380   -2.1884   -0.1090 N   0  0  0  0  0  0  0  0  0  0  0  0
   -3.4011   -0.7133   -0.1167 C   0  0  1  0  0  0  0  0  0  0  0  0
   -3.2421    0.7323   -0.5859 C   0  0  0  0  0  0  0  0  0  0  0  0
   -4.5854   -1.3787   -0.8024 C   0  0  0  0  0  0  0  0  0  0  0  0
    1.2171   -2.3996    0.5745 C   0  0  0  0  0  0  0  0  0  0  0  0
    2.2151   -1.3222    0.2624 C   0  0  0  0  0  0  0  0  0  0  0  0
   -1.0884   -1.4548    0.4359 C   0  0  0  0  0  0  0  0  0  0  0  0
    2.8659   -1.3097   -0.9713 C   0  0  0  0  0  0  0  0  0  0  0  0
    2.4911   -0.3330    1.2064 C   0  0  0  0  0  0  0  0  0  0  0  0
   -4.6175    1.5157    1.4097 C   0  0  0  0  0  0  0  0  0  0  0  0
   -3.6337    3.1299   -0.1646 C   0  0  0  0  0  0  0  0  0  0  0  0
    3.7928   -0.3086   -1.2610 C   0  0  0  0  0  0  0  0  0  0  0  0
    3.4181    0.6681    0.9169 C   0  0  0  0  0  0  0  0  0  0  0  0
    4.0689    0.6804   -0.3168 C   0  0  0  0  0  0  0  0  0  0  0  0
    5.2072    2.6375    0.4108 C   0  0  0  0  0  0  0  0  0  0  0  0
   -3.5204   -0.7612    0.9684 H   0  0  0  0  0  0  0  0  0  0  0  0
   -2.0702   -1.8108   -1.3591 H   0  0  0  0  0  0  0  0  0  0  0  0
   -5.5200   -0.8584   -0.5694 H   0  0  0  0  0  0  0  0  0  0  0  0
   -4.6841   -2.4222   -0.4847 H   0  0  0  0  0  0  0  0  0  0  0  0
   -4.4692   -1.3729   -1.8923 H   0  0  0  0  0  0  0  0  0  0  0  0
    1.6071   -3.3740    0.2592 H   0  0  0  0  0  0  0  0  0  0  0  0
    1.0332   -2.4621    1.6534 H   0  0  0  0  0  0  0  0  0  0  0  0
   -0.1497   -2.5793   -1.0395 H   0  0  0  0  0  0  0  0  0  0  0  0
    2.6587   -2.0751   -1.7147 H   0  0  0  0  0  0  0  0  0  0  0  0
    1.9896   -0.3303    2.1707 H   0  0  0  0  0  0  0  0  0  0  0  0
   -5.4135    2.2657    1.4503 H   0  0  0  0  0  0  0  0  0  0  0  0
   -5.0847    0.5305    1.4149 H   0  0  0  0  0  0  0  0  0  0  0  0
   -3.9729    1.6207    2.2868 H   0  0  0  0  0  0  0  0  0  0  0  0
   -3.2309    3.6816    0.6900 H   0  0  0  0  0  0  0  0  0  0  0  0
   -2.9526    3.2445   -1.0114 H   0  0  0  0  0  0  0  0  0  0  0  0
   -4.6102    3.5396   -0.4394 H   0  0  0  0  0  0  0  0  0  0  0  0
    4.2965   -0.3041   -2.2238 H   0  0  0  0  0  0  0  0  0  0  0  0
    3.5845    1.4053    1.6950 H   0  0  0  0  0  0  0  0  0  0  0  0
    4.3045    3.2203    0.6234 H   0  0  0  0  0  0  0  0  0  0  0  0
    5.6345    2.1894    1.3143 H   0  0  0  0  0  0  0  0  0  0  0  0
    5.9530    3.3359    0.0171 H   0  0  0  0  0  0  0  0  0  0  0  0
  1  8  2  0  0  0  0
  2 12  2  0  0  0  0
  3 19  1  0  0  0  0
  3 20  1  0  0  0  0
  4  7  1  0  0  0  0
  4 12  1  0  0  0  0
  4 22  1  0  0  0  0
  5  8  1  0  0  0  0
  5 15  1  0  0  0  0
  5 16  1  0  0  0  0
  6 10  1  0  0  0  0
  6 12  1  0  0  0  0
  6 28  1  0  0  0  0
  7  8  1  0  0  0  0
  7  9  1  0  0  0  0
  7 21  1  0  0  0  0
  9 23  1  0  0  0  0
  9 24  1  0  0  0  0
  9 25  1  0  0  0  0
 10 11  1  0  0  0  0
 10 26  1  0  0  0  0
 10 27  1  0  0  0  0
 11 13  2  0  0  0  0
 11 14  1  0  0  0  0
 13 17  1  0  0  0  0
 13 29  1  0  0  0  0
 14 18  2  0  0  0  0
 14 30  1  0  0  0  0
 15 31  1  0  0  0  0
 15 32  1  0  0  0  0
 15 33  1  0  0  0  0
 16 34  1  0  0  0  0
 16 35  1  0  0  0  0
 16 36  1  0  0  0  0
 17 19  2  0  0  0  0
 17 37  1  0  0  0  0
 18 19  1  0  0  0  0
 18 38  1  0  0  0  0
 20 39  1  0  0  0  0
 20 40  1  0  0  0  0
 20 41  1  0  0  0  0
M  END
> <PUBCHEM_COMPOUND_CID>
47205148

> <PUBCHEM_CONFORMER_RMSD>
0.8

> <PUBCHEM_CONFORMER_DIVERSEORDER>
1
204
203
38
127
195
180
208
46
160
189
69
196
58
2
44
179
161
55
176
177
85
116
89
132
114
168
29
109
80
187
95
144
228
200
128
53
35
149
66
71
94
32
105
183
234
59
126
78
7
118
82
56
63
206
198
91
13
30
205
166
142
184
103
185
232
14
178
164
145
135
123
54
242
217
192
148
41
201
146
119
155
73
84
113
181
167
151
138
220
77
238
210
120
199
98
213
133
248
224
9
246
223
64
230
99
36
6
171
197
174
17
72
162
159
250
245
50
88
25
122
81
4
143
134
131
152
218
49
110
107
156
10
233
11
170
219
139
74
79
121
92
125
186
68
27
239
26
87
215
209
61
247
37
212
172
141
182
190
18
112
244
21
243
67
22
163
31
173
241
202
96
101
222
76
169
231
130
40
23
194
86
140
226
214
65
16
147
136
229
115
28
129
237
225
193
42
191
20
12
235
249
236
227
221
124
15
19
45
207
117
165
188
39
60
158
111
51
83
108
70
154
57
216
90
47
153
240
3
48
102
157
33
150
211
62
34
24
97
43
5
175
75
8
137
52
93
104
106
100

> <PUBCHEM_MMFF94_PARTIAL_CHARGES>
25
1 -0.57
10 0.44
11 -0.14
12 0.69
13 -0.15
14 -0.15
15 0.3
16 0.3
17 -0.15
18 -0.15
19 0.08
2 -0.57
20 0.28
22 0.37
28 0.37
29 0.15
3 -0.36
30 0.15
37 0.15
38 0.15
4 -0.73
5 -0.66
6 -0.73
7 0.36
8 0.57

> <PUBCHEM_EFFECTIVE_ROTOR_COUNT>
8

> <PUBCHEM_PHARMACOPHORE_FEATURES>
6
1 1 acceptor
1 2 acceptor
1 3 acceptor
1 4 donor
1 6 donor
6 11 13 14 17 18 19 rings

> <PUBCHEM_HEAVY_ATOM_COUNT>
20

> <PUBCHEM_ATOM_DEF_STEREO_COUNT>
0

> <PUBCHEM_ATOM_UDEF_STEREO_COUNT>
1

> <PUBCHEM_BOND_DEF_STEREO_COUNT>
0

> <PUBCHEM_BOND_UDEF_STEREO_COUNT>
0

> <PUBCHEM_ISOTOPIC_ATOM_COUNT>
0

> <PUBCHEM_COMPONENT_COUNT>
1

> <PUBCHEM_CACTVS_TAUTO_COUNT>
3

> <PUBCHEM_CONFORMER_ID>
02D04B1C00000001

> <PUBCHEM_MMFF94_ENERGY>
54.0786

> <PUBCHEM_FEATURE_SELFOVERLAP>
30.497

> <PUBCHEM_SHAPE_FINGERPRINT>
10498660 4 18411985783872684765
10670039 82 18343295968734699940
10968037 57 9151173160237093077
11059048 146 17684358847229282824
11615756 256 18338802315839895831
11720765 8 17753321274002460518
12173636 292 18262811795091413311
12346177 29 9007057950971555739
12363563 72 8430309151752895314
12555020 224 8646495085905657891
12596602 18 16342867521140607320
12670546 177 17750236919683300134
13103583 49 11815631821103906766
14251764 38 18411423916646485552
14251764 75 18118679053316180369
14739800 52 18195547912900193752
14848178 5 9294991432897336153
14848178 96 18338240465314096040
15163728 17 18270385102334190782
15188451 53 12751233658638272177
17834072 32 18339641132017837288
1798214 55 18341893021582405820
18186145 218 18040720319909438235
21401589 2 18201716219564066048
21713013 43 16081660958755900447
21864079 5 18341614870905178889
221357 26 18041280984844955001
23402655 69 17894908529768124626
235170 7 17458338628533204646
23559900 14 17677898014231125686
23590187 138 18337106869189511673
2838139 119 18189620450083711780
312425 54 11383846947687590492
312425 83 17894627088966342028
3472631 163 18262236741751431365
4028521 119 18187922833809867098
44062 13 7997974578889762121
5104073 3 18273495697268772290
5281201 14 18040430014395519094
633830 44 18334577996350464215
7808743 9 18339362942543122744

> <PUBCHEM_SHAPE_MULTIPOLES>
379.04
11.84
3.04
1.28
1.29
1.44
0.06
8.32
-1.04
-0.54
0.15
-0.13
0.03
-0.24

> <PUBCHEM_SHAPE_SELFOVERLAP>
764.524

> <PUBCHEM_SHAPE_VOLUME>
222.1

> <PUBCHEM_COORDINATE_TYPE>
2
5
10

$$$$

