12054
  -OEChem-06261206273D

 20 20  0     0  0  0  0  0  0999 V2000
    2.8215    0.0847   -0.0010 P   0  0  0  0  0  0  0  0  0  0  0  0
    3.2547   -0.8432    1.2559 O   0  0  0  0  0  0  0  0  0  0  0  0
    3.2498   -0.8457   -1.2577 O   0  0  0  0  0  0  0  0  0  0  0  0
    3.5098    1.4190   -0.0036 O   0  0  0  0  0  0  0  0  0  0  0  0
   -3.6982   -1.2288   -0.0017 O   0  0  0  0  0  0  0  0  0  0  0  0
   -3.9131    1.0341   -0.0026 O   0  0  0  0  0  0  0  0  0  0  0  0
    1.0554    0.0694    0.0020 C   0  0  0  0  0  0  0  0  0  0  0  0
    0.3478    1.2715    0.0020 C   0  0  0  0  0  0  0  0  0  0  0  0
    0.3682   -1.1443    0.0019 C   0  0  0  0  0  0  0  0  0  0  0  0
   -1.7342    0.0460    0.0017 C   0  0  0  0  0  0  0  0  0  0  0  0
   -1.0470    1.2598    0.0019 C   0  0  0  0  0  0  0  0  0  0  0  0
   -1.0266   -1.1561    0.0017 C   0  0  0  0  0  0  0  0  0  0  0  0
   -3.1882    0.0335   -0.0005 C   0  0  0  0  0  0  0  0  0  0  0  0
    0.8734    2.2218    0.0014 H   0  0  0  0  0  0  0  0  0  0  0  0
    0.9123   -2.0845    0.0015 H   0  0  0  0  0  0  0  0  0  0  0  0
   -1.5796    2.2072    0.0015 H   0  0  0  0  0  0  0  0  0  0  0  0
   -1.5212   -2.1233    0.0012 H   0  0  0  0  0  0  0  0  0  0  0  0
    4.2080   -0.9387    1.4662 H   0  0  0  0  0  0  0  0  0  0  0  0
    4.2024   -0.9417   -1.4714 H   0  0  0  0  0  0  0  0  0  0  0  0
   -4.6792   -1.2260   -0.0039 H   0  0  0  0  0  0  0  0  0  0  0  0
  1  2  1  0  0  0  0
  1  3  1  0  0  0  0
  1  4  2  0  0  0  0
  1  7  1  0  0  0  0
  2 18  1  0  0  0  0
  3 19  1  0  0  0  0
  5 13  1  0  0  0  0
  5 20  1  0  0  0  0
  6 13  2  0  0  0  0
  7  8  2  0  0  0  0
  7  9  1  0  0  0  0
  8 11  1  0  0  0  0
  8 14  1  0  0  0  0
  9 12  2  0  0  0  0
  9 15  1  0  0  0  0
 10 11  2  0  0  0  0
 10 12  1  0  0  0  0
 10 13  1  0  0  0  0
 11 16  1  0  0  0  0
 12 17  1  0  0  0  0
M  END
> <PUBCHEM_COMPOUND_CID>
12054

> <PUBCHEM_CONFORMER_RMSD>
0.6

> <PUBCHEM_CONFORMER_DIVERSEORDER>
1
2

> <PUBCHEM_MMFF94_PARTIAL_CHARGES>
20
1 1.38
10 0.09
11 -0.15
12 -0.15
13 0.63
14 0.15
15 0.15
16 0.15
17 0.15
18 0.5
19 0.5
2 -0.77
20 0.5
3 -0.77
4 -0.7
5 -0.65
6 -0.57
7 -0.14
8 -0.15
9 -0.15

> <PUBCHEM_EFFECTIVE_ROTOR_COUNT>
2

> <PUBCHEM_PHARMACOPHORE_FEATURES>
8
1 2 acceptor
1 3 acceptor
1 4 acceptor
1 5 acceptor
1 6 acceptor
3 5 6 13 anion
4 1 2 3 4 anion
6 7 8 9 10 11 12 rings

> <PUBCHEM_HEAVY_ATOM_COUNT>
13

> <PUBCHEM_ATOM_DEF_STEREO_COUNT>
0

> <PUBCHEM_ATOM_UDEF_STEREO_COUNT>
0

> <PUBCHEM_BOND_DEF_STEREO_COUNT>
0

> <PUBCHEM_BOND_UDEF_STEREO_COUNT>
0

> <PUBCHEM_ISOTOPIC_ATOM_COUNT>
0

> <PUBCHEM_COMPONENT_COUNT>
1

> <PUBCHEM_CACTVS_TAUTO_COUNT>
1

> <PUBCHEM_CONFORMER_ID>
00002F1600000001

> <PUBCHEM_MMFF94_ENERGY>
-4.7655

> <PUBCHEM_FEATURE_SELFOVERLAP>
40.694

> <PUBCHEM_SHAPE_FINGERPRINT>
10130415 120 18343026596606408016
10219947 1 18409446985854358509
11132069 177 18334299785648832641
12032990 46 18336256886366106711
12932764 1 17917996096007265324
13296908 3 18260826003407097759
14144814 61 18341895190435369299
14325111 11 18410855451628014913
14993402 34 18343018874133818989
16945 1 18338799017236453699
18186145 218 18272089413311998028
19026448 4 16370728136296835611
19026448 5 16415477160035691039
193761 8 17617941773700241537
20645476 183 17631717288755424142
20645477 70 17821725086941105598
23402539 116 18334305266195901068
23463225 33 18343306993504116186
23552423 10 17985265170988188468
23559900 14 18334009528044393494
2748010 2 18195246611773779463
581208 293 18040438797714220726

> <PUBCHEM_SHAPE_MULTIPOLES>
242.04
6.61
1.45
0.78
0.67
0.12
0
-0.02
0.01
0.04
0
-0.63
-0.16
0

> <PUBCHEM_SHAPE_SELFOVERLAP>
491.788

> <PUBCHEM_SHAPE_VOLUME>
141.3

> <PUBCHEM_COORDINATE_TYPE>
2
5
10

$$$$

