5349
  -OEChem-06261200392D

132132  0     1  0  0  0  0  0999 V2000
   23.6506   -4.5950    0.0000 S   0  0  0  0  0  0  0  0  0  0  0  0
   21.9186   -5.5950    0.0000 O   0  0  0  0  0  0  0  0  0  0  0  0
   20.1865   -5.5950    0.0000 O   0  0  0  0  0  0  0  0  0  0  0  0
   23.6506   -7.5950    0.0000 O   0  0  0  0  0  0  0  0  0  0  0  0
   21.9186   -8.5950    0.0000 O   0  0  0  0  0  0  0  0  0  0  0  0
   20.1865   -7.5950    0.0000 O   0  0  0  0  0  0  0  0  0  0  0  0
   23.6506   -3.5950    0.0000 O   0  0  0  0  0  0  0  0  0  0  0  0
   24.6506   -4.5950    0.0000 O   0  0  0  0  0  0  0  0  0  0  0  0
   22.6506   -4.5950    0.0000 O   0  0  0  0  0  0  0  0  0  0  0  0
   19.3205   -3.0950    0.0000 O   0  0  0  0  0  0  0  0  0  0  0  0
   17.5885   -4.0950    0.0000 O   0  0  0  0  0  0  0  0  0  0  0  0
   17.5885   -3.0950    0.0000 O   0  0  0  0  0  0  0  0  0  0  0  0
   16.7224   -5.5950    0.0000 O   0  0  0  0  0  0  0  0  0  0  0  0
   22.7846   -7.0950    0.0000 C   0  0  3  0  0  0  0  0  0  0  0  0
   22.7846   -6.0950    0.0000 C   0  0  3  0  0  0  0  0  0  0  0  0
   21.9186   -7.5950    0.0000 C   0  0  3  0  0  0  0  0  0  0  0  0
   21.0526   -7.0950    0.0000 C   0  0  3  0  0  0  0  0  0  0  0  0
   21.0526   -6.0950    0.0000 C   0  0  3  0  0  0  0  0  0  0  0  0
   23.6506   -5.5950    0.0000 C   0  0  0  0  0  0  0  0  0  0  0  0
   20.1865   -4.5950    0.0000 C   0  0  0  0  0  0  0  0  0  0  0  0
   19.3205   -4.0950    0.0000 C   0  0  3  0  0  0  0  0  0  0  0  0
   18.4545   -4.5950    0.0000 C   0  0  0  0  0  0  0  0  0  0  0  0
   15.8564    2.9050    0.0000 C   0  0  0  0  0  0  0  0  0  0  0  0
   15.8564    1.9050    0.0000 C   0  0  0  0  0  0  0  0  0  0  0  0
   14.9904    3.4050    0.0000 C   0  0  0  0  0  0  0  0  0  0  0  0
   16.7224    1.4050    0.0000 C   0  0  0  0  0  0  0  0  0  0  0  0
   16.7224    0.4050    0.0000 C   0  0  0  0  0  0  0  0  0  0  0  0
   14.9904    4.4050    0.0000 C   0  0  0  0  0  0  0  0  0  0  0  0
   17.5885   -0.0950    0.0000 C   0  0  0  0  0  0  0  0  0  0  0  0
   14.1244    4.9050    0.0000 C   0  0  0  0  0  0  0  0  0  0  0  0
   17.5885   -1.0950    0.0000 C   0  0  0  0  0  0  0  0  0  0  0  0
   14.1244    5.9050    0.0000 C   0  0  0  0  0  0  0  0  0  0  0  0
   18.4545   -1.5950    0.0000 C   0  0  0  0  0  0  0  0  0  0  0  0
   18.4545   -2.5950    0.0000 C   0  0  0  0  0  0  0  0  0  0  0  0
   13.2583    6.4050    0.0000 C   0  0  0  0  0  0  0  0  0  0  0  0
   13.2583    7.4050    0.0000 C   0  0  0  0  0  0  0  0  0  0  0  0
   12.3923    7.9050    0.0000 C   0  0  0  0  0  0  0  0  0  0  0  0
   16.7224   -4.5950    0.0000 C   0  0  0  0  0  0  0  0  0  0  0  0
   15.8564   -4.0950    0.0000 C   0  0  0  0  0  0  0  0  0  0  0  0
   14.9904   -4.5950    0.0000 C   0  0  0  0  0  0  0  0  0  0  0  0
   14.1244   -4.0950    0.0000 C   0  0  0  0  0  0  0  0  0  0  0  0
   13.2583   -4.5950    0.0000 C   0  0  0  0  0  0  0  0  0  0  0  0
   12.3923   -4.0950    0.0000 C   0  0  0  0  0  0  0  0  0  0  0  0
   12.3923    8.9050    0.0000 C   0  0  0  0  0  0  0  0  0  0  0  0
   11.5263   -4.5950    0.0000 C   0  0  0  0  0  0  0  0  0  0  0  0
   10.6603   -4.0950    0.0000 C   0  0  0  0  0  0  0  0  0  0  0  0
    9.7942   -4.5950    0.0000 C   0  0  0  0  0  0  0  0  0  0  0  0
    8.9282   -4.0950    0.0000 C   0  0  0  0  0  0  0  0  0  0  0  0
    8.0622   -4.5950    0.0000 C   0  0  0  0  0  0  0  0  0  0  0  0
    7.1962   -4.0950    0.0000 C   0  0  0  0  0  0  0  0  0  0  0  0
    6.3301   -4.5950    0.0000 C   0  0  0  0  0  0  0  0  0  0  0  0
    5.4641   -4.0950    0.0000 C   0  0  0  0  0  0  0  0  0  0  0  0
    4.5981   -4.5950    0.0000 C   0  0  0  0  0  0  0  0  0  0  0  0
    3.7320   -4.0950    0.0000 C   0  0  0  0  0  0  0  0  0  0  0  0
    2.8660   -4.5950    0.0000 C   0  0  0  0  0  0  0  0  0  0  0  0
    2.0000   -4.0950    0.0000 C   0  0  0  0  0  0  0  0  0  0  0  0
   23.5207   -6.6700    0.0000 H   0  0  0  0  0  0  0  0  0  0  0  0
   22.7846   -5.2450    0.0000 H   0  0  0  0  0  0  0  0  0  0  0  0
   22.6547   -8.0200    0.0000 H   0  0  0  0  0  0  0  0  0  0  0  0
   21.0526   -7.9450    0.0000 H   0  0  0  0  0  0  0  0  0  0  0  0
   21.0526   -5.2450    0.0000 H   0  0  0  0  0  0  0  0  0  0  0  0
   23.8627   -6.1776    0.0000 H   0  0  0  0  0  0  0  0  0  0  0  0
   24.2612   -5.4873    0.0000 H   0  0  0  0  0  0  0  0  0  0  0  0
   23.6506   -8.2150    0.0000 H   0  0  0  0  0  0  0  0  0  0  0  0
   21.3816   -8.9050    0.0000 H   0  0  0  0  0  0  0  0  0  0  0  0
   19.6496   -7.2850    0.0000 H   0  0  0  0  0  0  0  0  0  0  0  0
   20.7971   -4.7027    0.0000 H   0  0  0  0  0  0  0  0  0  0  0  0
   20.3986   -4.0124    0.0000 H   0  0  0  0  0  0  0  0  0  0  0  0
   20.0566   -3.6700    0.0000 H   0  0  0  0  0  0  0  0  0  0  0  0
   18.0560   -5.0700    0.0000 H   0  0  0  0  0  0  0  0  0  0  0  0
   18.8530   -5.0700    0.0000 H   0  0  0  0  0  0  0  0  0  0  0  0
   24.1876   -3.2850    0.0000 H   0  0  0  0  0  0  0  0  0  0  0  0
   16.4670    2.7973    0.0000 H   0  0  0  0  0  0  0  0  0  0  0  0
   16.0685    3.4876    0.0000 H   0  0  0  0  0  0  0  0  0  0  0  0
   15.2458    2.0127    0.0000 H   0  0  0  0  0  0  0  0  0  0  0  0
   15.6444    1.3224    0.0000 H   0  0  0  0  0  0  0  0  0  0  0  0
   14.3798    3.5127    0.0000 H   0  0  0  0  0  0  0  0  0  0  0  0
   14.7783    2.8224    0.0000 H   0  0  0  0  0  0  0  0  0  0  0  0
   17.3330    1.2973    0.0000 H   0  0  0  0  0  0  0  0  0  0  0  0
   16.9345    1.9876    0.0000 H   0  0  0  0  0  0  0  0  0  0  0  0
   16.1119    0.5127    0.0000 H   0  0  0  0  0  0  0  0  0  0  0  0
   16.5104   -0.1776    0.0000 H   0  0  0  0  0  0  0  0  0  0  0  0
   15.6010    4.2973    0.0000 H   0  0  0  0  0  0  0  0  0  0  0  0
   15.2024    4.9876    0.0000 H   0  0  0  0  0  0  0  0  0  0  0  0
   18.1990   -0.2027    0.0000 H   0  0  0  0  0  0  0  0  0  0  0  0
   17.8005    0.4876    0.0000 H   0  0  0  0  0  0  0  0  0  0  0  0
   13.5138    5.0127    0.0000 H   0  0  0  0  0  0  0  0  0  0  0  0
   13.9123    4.3224    0.0000 H   0  0  0  0  0  0  0  0  0  0  0  0
   16.9779   -0.9873    0.0000 H   0  0  0  0  0  0  0  0  0  0  0  0
   17.3764   -1.6776    0.0000 H   0  0  0  0  0  0  0  0  0  0  0  0
   14.7349    5.7973    0.0000 H   0  0  0  0  0  0  0  0  0  0  0  0
   14.3364    6.4876    0.0000 H   0  0  0  0  0  0  0  0  0  0  0  0
   19.0651   -1.7027    0.0000 H   0  0  0  0  0  0  0  0  0  0  0  0
   18.6665   -1.0124    0.0000 H   0  0  0  0  0  0  0  0  0  0  0  0
   12.6477    6.5127    0.0000 H   0  0  0  0  0  0  0  0  0  0  0  0
   13.0463    5.8224    0.0000 H   0  0  0  0  0  0  0  0  0  0  0  0
   13.8689    7.2973    0.0000 H   0  0  0  0  0  0  0  0  0  0  0  0
   13.4704    7.9876    0.0000 H   0  0  0  0  0  0  0  0  0  0  0  0
   11.7817    8.0127    0.0000 H   0  0  0  0  0  0  0  0  0  0  0  0
   12.1803    7.3224    0.0000 H   0  0  0  0  0  0  0  0  0  0  0  0
   16.2549   -3.6200    0.0000 H   0  0  0  0  0  0  0  0  0  0  0  0
   15.4579   -3.6200    0.0000 H   0  0  0  0  0  0  0  0  0  0  0  0
   14.5919   -5.0700    0.0000 H   0  0  0  0  0  0  0  0  0  0  0  0
   15.3889   -5.0700    0.0000 H   0  0  0  0  0  0  0  0  0  0  0  0
   14.5229   -3.6200    0.0000 H   0  0  0  0  0  0  0  0  0  0  0  0
   13.7258   -3.6200    0.0000 H   0  0  0  0  0  0  0  0  0  0  0  0
   12.8598   -5.0700    0.0000 H   0  0  0  0  0  0  0  0  0  0  0  0
   13.6569   -5.0700    0.0000 H   0  0  0  0  0  0  0  0  0  0  0  0
   12.7908   -3.6200    0.0000 H   0  0  0  0  0  0  0  0  0  0  0  0
   11.9938   -3.6200    0.0000 H   0  0  0  0  0  0  0  0  0  0  0  0
   13.0123    8.9050    0.0000 H   0  0  0  0  0  0  0  0  0  0  0  0
   12.3923    9.5250    0.0000 H   0  0  0  0  0  0  0  0  0  0  0  0
   11.7723    8.9050    0.0000 H   0  0  0  0  0  0  0  0  0  0  0  0
   11.1278   -5.0700    0.0000 H   0  0  0  0  0  0  0  0  0  0  0  0
   11.9248   -5.0700    0.0000 H   0  0  0  0  0  0  0  0  0  0  0  0
   11.0588   -3.6200    0.0000 H   0  0  0  0  0  0  0  0  0  0  0  0
   10.2617   -3.6200    0.0000 H   0  0  0  0  0  0  0  0  0  0  0  0
    9.7942   -5.2150    0.0000 H   0  0  0  0  0  0  0  0  0  0  0  0
    8.9282   -3.4750    0.0000 H   0  0  0  0  0  0  0  0  0  0  0  0
    7.6636   -5.0700    0.0000 H   0  0  0  0  0  0  0  0  0  0  0  0
    8.4607   -5.0700    0.0000 H   0  0  0  0  0  0  0  0  0  0  0  0
    7.1962   -3.4750    0.0000 H   0  0  0  0  0  0  0  0  0  0  0  0
    6.3301   -5.2150    0.0000 H   0  0  0  0  0  0  0  0  0  0  0  0
    5.8626   -3.6200    0.0000 H   0  0  0  0  0  0  0  0  0  0  0  0
    5.0656   -3.6200    0.0000 H   0  0  0  0  0  0  0  0  0  0  0  0
    4.5981   -5.2150    0.0000 H   0  0  0  0  0  0  0  0  0  0  0  0
    3.7320   -3.4750    0.0000 H   0  0  0  0  0  0  0  0  0  0  0  0
    2.4675   -5.0700    0.0000 H   0  0  0  0  0  0  0  0  0  0  0  0
    3.2646   -5.0700    0.0000 H   0  0  0  0  0  0  0  0  0  0  0  0
    2.3100   -3.5581    0.0000 H   0  0  0  0  0  0  0  0  0  0  0  0
    1.4631   -3.7850    0.0000 H   0  0  0  0  0  0  0  0  0  0  0  0
    1.6900   -4.6319    0.0000 H   0  0  0  0  0  0  0  0  0  0  0  0
  1  7  1  0  0  0  0
  1  8  2  0  0  0  0
  1  9  2  0  0  0  0
  1 19  1  0  0  0  0
  2 15  1  0  0  0  0
  2 18  1  0  0  0  0
  3 18  1  0  0  0  0
  3 20  1  0  0  0  0
  4 14  1  0  0  0  0
  4 64  1  0  0  0  0
  5 16  1  0  0  0  0
  5 65  1  0  0  0  0
  6 17  1  0  0  0  0
  6 66  1  0  0  0  0
  7 72  1  0  0  0  0
 10 21  1  0  0  0  0
 10 34  1  0  0  0  0
 11 22  1  0  0  0  0
 11 38  1  0  0  0  0
 12 34  2  0  0  0  0
 13 38  2  0  0  0  0
 14 15  1  0  0  0  0
 14 16  1  0  0  0  0
 14 57  1  0  0  0  0
 15 19  1  0  0  0  0
 15 58  1  0  0  0  0
 16 17  1  0  0  0  0
 16 59  1  0  0  0  0
 17 18  1  0  0  0  0
 17 60  1  0  0  0  0
 18 61  1  0  0  0  0
 19 62  1  0  0  0  0
 19 63  1  0  0  0  0
 20 21  1  0  0  0  0
 20 67  1  0  0  0  0
 20 68  1  0  0  0  0
 21 22  1  0  0  0  0
 21 69  1  0  0  0  0
 22 70  1  0  0  0  0
 22 71  1  0  0  0  0
 23 24  1  0  0  0  0
 23 25  1  0  0  0  0
 23 73  1  0  0  0  0
 23 74  1  0  0  0  0
 24 26  1  0  0  0  0
 24 75  1  0  0  0  0
 24 76  1  0  0  0  0
 25 28  1  0  0  0  0
 25 77  1  0  0  0  0
 25 78  1  0  0  0  0
 26 27  1  0  0  0  0
 26 79  1  0  0  0  0
 26 80  1  0  0  0  0
 27 29  1  0  0  0  0
 27 81  1  0  0  0  0
 27 82  1  0  0  0  0
 28 30  1  0  0  0  0
 28 83  1  0  0  0  0
 28 84  1  0  0  0  0
 29 31  1  0  0  0  0
 29 85  1  0  0  0  0
 29 86  1  0  0  0  0
 30 32  1  0  0  0  0
 30 87  1  0  0  0  0
 30 88  1  0  0  0  0
 31 33  1  0  0  0  0
 31 89  1  0  0  0  0
 31 90  1  0  0  0  0
 32 35  1  0  0  0  0
 32 91  1  0  0  0  0
 32 92  1  0  0  0  0
 33 34  1  0  0  0  0
 33 93  1  0  0  0  0
 33 94  1  0  0  0  0
 35 36  1  0  0  0  0
 35 95  1  0  0  0  0
 35 96  1  0  0  0  0
 36 37  1  0  0  0  0
 36 97  1  0  0  0  0
 36 98  1  0  0  0  0
 37 44  1  0  0  0  0
 37 99  1  0  0  0  0
 37100  1  0  0  0  0
 38 39  1  0  0  0  0
 39 40  1  0  0  0  0
 39101  1  0  0  0  0
 39102  1  0  0  0  0
 40 41  1  0  0  0  0
 40103  1  0  0  0  0
 40104  1  0  0  0  0
 41 42  1  0  0  0  0
 41105  1  0  0  0  0
 41106  1  0  0  0  0
 42 43  1  0  0  0  0
 42107  1  0  0  0  0
 42108  1  0  0  0  0
 43 45  1  0  0  0  0
 43109  1  0  0  0  0
 43110  1  0  0  0  0
 44111  1  0  0  0  0
 44112  1  0  0  0  0
 44113  1  0  0  0  0
 45 46  1  0  0  0  0
 45114  1  0  0  0  0
 45115  1  0  0  0  0
 46 47  1  0  0  0  0
 46116  1  0  0  0  0
 46117  1  0  0  0  0
 47 48  2  3  0  0  0
 47118  1  0  0  0  0
 48 49  1  0  0  0  0
 48119  1  0  0  0  0
 49 50  1  0  0  0  0
 49120  1  0  0  0  0
 49121  1  0  0  0  0
 50 51  2  3  0  0  0
 50122  1  0  0  0  0
 51 52  1  0  0  0  0
 51123  1  0  0  0  0
 52 53  1  0  0  0  0
 52124  1  0  0  0  0
 52125  1  0  0  0  0
 53 54  2  3  0  0  0
 53126  1  0  0  0  0
 54 55  1  0  0  0  0
 54127  1  0  0  0  0
 55 56  1  0  0  0  0
 55128  1  0  0  0  0
 55129  1  0  0  0  0
 56130  1  0  0  0  0
 56131  1  0  0  0  0
 56132  1  0  0  0  0
M  END
> <PUBCHEM_COMPOUND_CID>
5349

> <PUBCHEM_COMPOUND_CANONICALIZED>
1

> <PUBCHEM_CACTVS_COMPLEXITY>
1180

> <PUBCHEM_CACTVS_HBOND_ACCEPTOR>
12

> <PUBCHEM_CACTVS_HBOND_DONOR>
4

> <PUBCHEM_CACTVS_ROTATABLE_BOND>
37

> <PUBCHEM_CACTVS_SUBSKEYS>
AAADcfB8PABAAAAAAAAAAAAAAAAAAAAAAAAkAAAAAAAAAAAAAAAAGgQACAAACBS0wAOCCAAABoKIACDSCHBAAAAgAAAICAEAAAgREBIAAQAiQAAFgAAPAAPI6KyAAAAAAAAAAAAAAAAAAAAAAAAAAAAAAA==

> <PUBCHEM_IUPAC_OPENEYE_NAME>
[6-(2-hexadecanoyloxy-3-octadeca-9,12,15-trienoyloxy-propoxy)-3,4,5-trihydroxy-tetrahydropyran-2-yl]methanesulfonic acid

> <PUBCHEM_IUPAC_CAS_NAME>
[3,4,5-trihydroxy-6-[2-(1-oxohexadecoxy)-3-(1-oxooctadeca-9,12,15-trienoxy)propoxy]-2-oxanyl]methanesulfonic acid

> <PUBCHEM_IUPAC_NAME>
[6-(2-hexadecanoyloxy-3-octadeca-9,12,15-trienoyloxypropoxy)-3,4,5-trihydroxyoxan-2-yl]methanesulfonic acid

> <PUBCHEM_IUPAC_SYSTEMATIC_NAME>
[6-(2-hexadecanoyloxy-3-octadeca-9,12,15-trienoyloxy-propoxy)-3,4,5-tris(oxidanyl)oxan-2-yl]methanesulfonic acid

> <PUBCHEM_IUPAC_TRADITIONAL_NAME>
[6-(2-hexadecanoyloxy-3-octadeca-9,12,15-trienoyloxy-propoxy)-3,4,5-trihydroxy-tetrahydropyran-2-yl]methanesulfonic acid

> <PUBCHEM_IUPAC_INCHI>
InChI=1S/C43H76O12S/c1-3-5-7-9-11-13-15-17-18-20-21-23-25-27-29-31-38(44)52-33-36(34-53-43-42(48)41(47)40(46)37(55-43)35-56(49,50)51)54-39(45)32-30-28-26-24-22-19-16-14-12-10-8-6-4-2/h5,7,11,13,17-18,36-37,40-43,46-48H,3-4,6,8-10,12,14-16,19-35H2,1-2H3,(H,49,50,51)

> <PUBCHEM_IUPAC_INCHIKEY>
ZAHARQGLYKGAHR-UHFFFAOYSA-N

> <PUBCHEM_XLOGP3_AA>
10.2

> <PUBCHEM_EXACT_MASS>
816.505749

> <PUBCHEM_MOLECULAR_FORMULA>
C43H76O12S

> <PUBCHEM_MOLECULAR_WEIGHT>
817.12134

> <PUBCHEM_OPENEYE_CAN_SMILES>
CCCCCCCCCCCCCCCC(=O)OC(COC1C(C(C(C(O1)CS(=O)(=O)O)O)O)O)COC(=O)CCCCCCCC=CCC=CCC=CCC

> <PUBCHEM_OPENEYE_ISO_SMILES>
CCCCCCCCCCCCCCCC(=O)OC(COC1C(C(C(C(O1)CS(=O)(=O)O)O)O)O)COC(=O)CCCCCCCC=CCC=CCC=CCC

> <PUBCHEM_CACTVS_TPSA>
195

> <PUBCHEM_MONOISOTOPIC_WEIGHT>
816.505749

> <PUBCHEM_TOTAL_CHARGE>
0

> <PUBCHEM_HEAVY_ATOM_COUNT>
56

> <PUBCHEM_ATOM_DEF_STEREO_COUNT>
0

> <PUBCHEM_ATOM_UDEF_STEREO_COUNT>
6

> <PUBCHEM_BOND_DEF_STEREO_COUNT>
0

> <PUBCHEM_BOND_UDEF_STEREO_COUNT>
3

> <PUBCHEM_ISOTOPIC_ATOM_COUNT>
0

> <PUBCHEM_COMPONENT_COUNT>
1

> <PUBCHEM_CACTVS_TAUTO_COUNT>
1

> <PUBCHEM_COORDINATE_TYPE>
1
5
255

> <PUBCHEM_BONDANNOTATIONS>
14  57  3
15  58  3
16  59  3
17  60  3
18  61  3
21  69  3
47  48  1
50  51  1
53  54  1

$$$$

