6649
  -OEChem-06261201253D

 37 38  0     0  0  0  0  0  0999 V2000
    5.0378    0.7261   -0.3172 S   0  0  0  0  0  0  0  0  0  0  0  0
   -5.0360    0.7266    0.3171 S   0  0  0  0  0  0  0  0  0  0  0  0
    0.0007   -2.3243   -0.0001 O   0  0  0  0  0  0  0  0  0  0  0  0
    5.0987    1.3867   -1.6154 O   0  0  0  0  0  0  0  0  0  0  0  0
    6.1191   -0.1627    0.0911 O   0  0  0  0  0  0  0  0  0  0  0  0
   -5.0969    1.3871    1.6153 O   0  0  0  0  0  0  0  0  0  0  0  0
   -6.1174   -0.1619   -0.0912 O   0  0  0  0  0  0  0  0  0  0  0  0
    4.7663    1.9153    0.8998 N   0  0  0  0  0  0  0  0  0  0  0  0
   -4.7643    1.9160   -0.8997 N   0  0  0  0  0  0  0  0  0  0  0  0
    5.9133    2.6822    0.9664 N   0  0  0  0  0  0  0  0  0  0  0  0
   -5.9112    2.6829   -0.9663 N   0  0  0  0  0  0  0  0  0  0  0  0
    3.5465   -0.1776   -0.2230 C   0  0  0  0  0  0  0  0  0  0  0  0
   -3.5447   -0.1772    0.2228 C   0  0  0  0  0  0  0  0  0  0  0  0
    1.1633   -1.6202   -0.0730 C   0  0  0  0  0  0  0  0  0  0  0  0
   -1.1820   -1.6078    0.0740 C   0  0  0  0  0  0  0  0  0  0  0  0
    2.4561    0.1927   -1.0102 C   0  0  0  0  0  0  0  0  0  0  0  0
   -2.4543    0.1929    1.0101 C   0  0  0  0  0  0  0  0  0  0  0  0
    3.4453   -1.2695    0.6393 C   0  0  0  0  0  0  0  0  0  0  0  0
   -3.4436   -1.2691   -0.6395 C   0  0  0  0  0  0  0  0  0  0  0  0
    1.2645   -0.5285   -0.9351 C   0  0  0  0  0  0  0  0  0  0  0  0
   -1.2628   -0.5284    0.9349 C   0  0  0  0  0  0  0  0  0  0  0  0
    2.2537   -1.9907    0.7143 C   0  0  0  0  0  0  0  0  0  0  0  0
   -2.2521   -1.9905   -0.7145 C   0  0  0  0  0  0  0  0  0  0  0  0
    2.5123    1.0404   -1.6873 H   0  0  0  0  0  0  0  0  0  0  0  0
   -2.5104    1.0406    1.6874 H   0  0  0  0  0  0  0  0  0  0  0  0
    4.2789   -1.5716    1.2669 H   0  0  0  0  0  0  0  0  0  0  0  0
   -4.2772   -1.5711   -1.2671 H   0  0  0  0  0  0  0  0  0  0  0  0
    0.4391   -0.2306   -1.5762 H   0  0  0  0  0  0  0  0  0  0  0  0
   -0.4359   -0.2340    1.5745 H   0  0  0  0  0  0  0  0  0  0  0  0
    2.1798   -2.8392    1.3892 H   0  0  0  0  0  0  0  0  0  0  0  0
   -2.1739   -2.8390   -1.3874 H   0  0  0  0  0  0  0  0  0  0  0  0
    3.9440    2.5207    0.7746 H   0  0  0  0  0  0  0  0  0  0  0  0
   -3.9419    2.5212   -0.7744 H   0  0  0  0  0  0  0  0  0  0  0  0
    5.7957    3.3006    1.7679 H   0  0  0  0  0  0  0  0  0  0  0  0
    5.9115    3.2858    0.1445 H   0  0  0  0  0  0  0  0  0  0  0  0
   -5.7936    3.3013   -1.7678 H   0  0  0  0  0  0  0  0  0  0  0  0
   -5.9093    3.2865   -0.1443 H   0  0  0  0  0  0  0  0  0  0  0  0
  1  4  2  0  0  0  0
  1  5  2  0  0  0  0
  1  8  1  0  0  0  0
  1 12  1  0  0  0  0
  2  6  2  0  0  0  0
  2  7  2  0  0  0  0
  2  9  1  0  0  0  0
  2 13  1  0  0  0  0
  3 14  1  0  0  0  0
  3 15  1  0  0  0  0
  8 10  1  0  0  0  0
  8 32  1  0  0  0  0
  9 11  1  0  0  0  0
  9 33  1  0  0  0  0
 10 34  1  0  0  0  0
 10 35  1  0  0  0  0
 11 36  1  0  0  0  0
 11 37  1  0  0  0  0
 12 16  2  0  0  0  0
 12 18  1  0  0  0  0
 13 17  2  0  0  0  0
 13 19  1  0  0  0  0
 14 20  2  0  0  0  0
 14 22  1  0  0  0  0
 15 21  2  0  0  0  0
 15 23  1  0  0  0  0
 16 20  1  0  0  0  0
 16 24  1  0  0  0  0
 17 21  1  0  0  0  0
 17 25  1  0  0  0  0
 18 22  2  0  0  0  0
 18 26  1  0  0  0  0
 19 23  2  0  0  0  0
 19 27  1  0  0  0  0
 20 28  1  0  0  0  0
 21 29  1  0  0  0  0
 22 30  1  0  0  0  0
 23 31  1  0  0  0  0
M  END
> <PUBCHEM_COMPOUND_CID>
6649

> <PUBCHEM_CONFORMER_RMSD>
0.8

> <PUBCHEM_CONFORMER_DIVERSEORDER>
1
4
3
7
9
11
10
8
2
5
6

> <PUBCHEM_MMFF94_PARTIAL_CHARGES>
37
1 1.45
10 -0.65
11 -0.65
12 -0.01
13 -0.01
14 0.08
15 0.08
16 -0.15
17 -0.15
18 -0.15
19 -0.15
2 1.45
20 -0.15
21 -0.15
22 -0.15
23 -0.15
24 0.15
25 0.15
26 0.15
27 0.15
28 0.15
29 0.15
3 -0.17
30 0.15
31 0.15
32 0.42
33 0.42
34 0.36
35 0.36
36 0.36
37 0.36
4 -0.65
5 -0.65
6 -0.65
7 -0.65
8 -0.63
9 -0.63

> <PUBCHEM_EFFECTIVE_ROTOR_COUNT>
6

> <PUBCHEM_PHARMACOPHORE_FEATURES>
9
1 3 acceptor
1 4 acceptor
1 5 acceptor
1 6 acceptor
1 7 acceptor
1 8 donor
1 9 donor
6 12 14 16 18 20 22 rings
6 13 15 17 19 21 23 rings

> <PUBCHEM_HEAVY_ATOM_COUNT>
23

> <PUBCHEM_ATOM_DEF_STEREO_COUNT>
0

> <PUBCHEM_ATOM_UDEF_STEREO_COUNT>
0

> <PUBCHEM_BOND_DEF_STEREO_COUNT>
0

> <PUBCHEM_BOND_UDEF_STEREO_COUNT>
0

> <PUBCHEM_ISOTOPIC_ATOM_COUNT>
0

> <PUBCHEM_COMPONENT_COUNT>
1

> <PUBCHEM_CACTVS_TAUTO_COUNT>
1

> <PUBCHEM_CONFORMER_ID>
000019F900000001

> <PUBCHEM_MMFF94_ENERGY>
42.5826

> <PUBCHEM_FEATURE_SELFOVERLAP>
45.704

> <PUBCHEM_SHAPE_FINGERPRINT>
10014705 185 18334011661915256075
10498660 4 18186796968062198962
11069576 57 14852430194991837708
11089746 13 18333734602855814278
11961588 58 17967538947435639259
12236239 1 18410856563945981954
12403259 118 17845929632872401127
12422481 6 17489309715093479156
12596602 18 15769769130813110277
12760667 363 10015579498369789923
12788726 201 17531809189866440041
13551218 46 11527956650726361696
13878862 14 18127151837967835628
14123256 34 8934999299728049097
1420 369 9943812175021884138
14211702 104 9511458952709729441
14251764 38 18047191839387490672
14420673 8 11094791989333730336
14576447 43 7204780276510408094
14739800 52 18188224108849388346
15188451 53 14691989325539196697
15238133 3 17274809298771112966
15475509 84 18055084413340779624
17959699 21 18334012761758998498
1813 80 7565073770001902914
19784866 240 8574715710584341091
20281389 69 18412545413805674329
20511986 3 18410867554756073828
20621476 21 5977804520753316765
21033648 29 17989208156966123488
21304253 335 18272647991141621749
21475661 188 18044102259332568648
23379529 103 8718535151417724852
23559900 14 17968653942864330878
25122255 55 8214137486737011357
270888 7 18410576188469901348
2748736 6 18410583880756802692
2767999 5 18410009935686583945
2838139 119 18335708247080179052
2916195 48 18342177773893450441
312425 54 15769770308177144249
33382 64 12031799071700856432
3472631 163 18186799179785681527
34797466 226 17023173873843123636
351380 3 9295287218488480745
465052 167 9727335962290603331
474 4 18201995517077025954
5104073 3 18201723925179000610
543368 44 18187082845807798905
636775 72 17761494691483823480

> <PUBCHEM_SHAPE_MULTIPOLES>
431.76
15.62
2.55
1.18
0.04
0.8
0
12.65
0
0
0
0
0.4
0.29

> <PUBCHEM_SHAPE_SELFOVERLAP>
893.767

> <PUBCHEM_SHAPE_VOLUME>
246

> <PUBCHEM_COORDINATE_TYPE>
2
5
10

$$$$

