5925
  -OEChem-06261200592D

 38 38  0     0  0  0  0  0  0999 V2000
    7.0010    2.1200    0.0000 Cl  0  0  0  0  0  0  0  0  0  0  0  0
    0.0000    3.6200    0.0000 Cl  0  0  0  0  0  0  0  0  0  0  0  0
    5.2690    4.1200    0.0000 N   0  0  0  0  0  0  0  0  0  0  0  0
    4.4030    3.6200    0.0000 C   0  0  0  0  0  0  0  0  0  0  0  0
    5.2690    5.1200    0.0000 C   0  0  0  0  0  0  0  0  0  0  0  0
    6.1350    3.6200    0.0000 C   0  0  0  0  0  0  0  0  0  0  0  0
    4.4030    2.6200    0.0000 C   0  0  0  0  0  0  0  0  0  0  0  0
    6.1350    5.6200    0.0000 C   0  0  0  0  0  0  0  0  0  0  0  0
    6.1350    2.6200    0.0000 C   0  0  0  0  0  0  0  0  0  0  0  0
    7.0010    5.1200    0.0000 C   0  0  0  0  0  0  0  0  0  0  0  0
    3.5369    2.1200    0.0000 C   0  0  0  0  0  0  0  0  0  0  0  0
    6.1350    6.6200    0.0000 C   0  0  0  0  0  0  0  0  0  0  0  0
    5.2690    2.1200    0.0000 C   0  0  0  0  0  0  0  0  0  0  0  0
    3.5369    1.1200    0.0000 C   0  0  0  0  0  0  0  0  0  0  0  0
    7.8671    5.6200    0.0000 C   0  0  0  0  0  0  0  0  0  0  0  0
    5.2690    1.1200    0.0000 C   0  0  0  0  0  0  0  0  0  0  0  0
    7.0010    7.1200    0.0000 C   0  0  0  0  0  0  0  0  0  0  0  0
    4.4030    0.6200    0.0000 C   0  0  0  0  0  0  0  0  0  0  0  0
    7.8671    6.6200    0.0000 C   0  0  0  0  0  0  0  0  0  0  0  0
    4.1909    4.2026    0.0000 H   0  0  0  0  0  0  0  0  0  0  0  0
    3.7924    3.5123    0.0000 H   0  0  0  0  0  0  0  0  0  0  0  0
    5.0569    5.7026    0.0000 H   0  0  0  0  0  0  0  0  0  0  0  0
    4.6584    5.0123    0.0000 H   0  0  0  0  0  0  0  0  0  0  0  0
    6.7456    3.5123    0.0000 H   0  0  0  0  0  0  0  0  0  0  0  0
    6.3471    4.2026    0.0000 H   0  0  0  0  0  0  0  0  0  0  0  0
    5.5244    2.7277    0.0000 H   0  0  0  0  0  0  0  0  0  0  0  0
    5.9230    2.0374    0.0000 H   0  0  0  0  0  0  0  0  0  0  0  0
    7.0010    4.5000    0.0000 H   0  0  0  0  0  0  0  0  0  0  0  0
    3.0000    2.4300    0.0000 H   0  0  0  0  0  0  0  0  0  0  0  0
    5.5981    6.9300    0.0000 H   0  0  0  0  0  0  0  0  0  0  0  0
    5.8059    2.4300    0.0000 H   0  0  0  0  0  0  0  0  0  0  0  0
    3.0000    0.8100    0.0000 H   0  0  0  0  0  0  0  0  0  0  0  0
    8.4040    5.3100    0.0000 H   0  0  0  0  0  0  0  0  0  0  0  0
    5.8059    0.8100    0.0000 H   0  0  0  0  0  0  0  0  0  0  0  0
    7.0010    7.7400    0.0000 H   0  0  0  0  0  0  0  0  0  0  0  0
    4.4030    0.0000    0.0000 H   0  0  0  0  0  0  0  0  0  0  0  0
    8.4040    6.9300    0.0000 H   0  0  0  0  0  0  0  0  0  0  0  0
    1.0000    3.6200    0.0000 H   0  0  0  0  0  0  0  0  0  0  0  0
  1  9  1  0  0  0  0
  2 38  1  0  0  0  0
  3  4  1  0  0  0  0
  3  5  1  0  0  0  0
  3  6  1  0  0  0  0
  4  7  1  0  0  0  0
  4 20  1  0  0  0  0
  4 21  1  0  0  0  0
  5  8  1  0  0  0  0
  5 22  1  0  0  0  0
  5 23  1  0  0  0  0
  6  9  1  0  0  0  0
  6 24  1  0  0  0  0
  6 25  1  0  0  0  0
  7 11  2  0  0  0  0
  7 13  1  0  0  0  0
  8 10  2  0  0  0  0
  8 12  1  0  0  0  0
  9 26  1  0  0  0  0
  9 27  1  0  0  0  0
 10 15  1  0  0  0  0
 10 28  1  0  0  0  0
 11 14  1  0  0  0  0
 11 29  1  0  0  0  0
 12 17  2  0  0  0  0
 12 30  1  0  0  0  0
 13 16  2  0  0  0  0
 13 31  1  0  0  0  0
 14 18  2  0  0  0  0
 14 32  1  0  0  0  0
 15 19  2  0  0  0  0
 15 33  1  0  0  0  0
 16 18  1  0  0  0  0
 16 34  1  0  0  0  0
 17 19  1  0  0  0  0
 17 35  1  0  0  0  0
 18 36  1  0  0  0  0
 19 37  1  0  0  0  0
M  END
> <PUBCHEM_COMPOUND_CID>
5925

> <PUBCHEM_COMPOUND_CANONICALIZED>
1

> <PUBCHEM_CACTVS_COMPLEXITY>
187

> <PUBCHEM_CACTVS_HBOND_ACCEPTOR>
1

> <PUBCHEM_CACTVS_HBOND_DONOR>
1

> <PUBCHEM_CACTVS_ROTATABLE_BOND>
6

> <PUBCHEM_CACTVS_SUBSKEYS>
AAADceB6AAAGAAAAAAAAAAAAAAAAAAAAAAAwYAAAAAAAAAABQAAAHAIAAAAADAPBGEQwAIMAAACAAiBCAACCAAAgAAAIiAAIBIgIICKAkRHEIAhggACIiAcQgAAOAAAAAAAAAAAAAAAAAAAAAAAAAAAAAA==

> <PUBCHEM_IUPAC_OPENEYE_NAME>
N,N-dibenzyl-2-chloro-ethanamine hydrochloride

> <PUBCHEM_IUPAC_CAS_NAME>
2-chloro-N,N-bis(phenylmethyl)ethanamine hydrochloride

> <PUBCHEM_IUPAC_NAME>
N,N-dibenzyl-2-chloroethanamine hydrochloride

> <PUBCHEM_IUPAC_SYSTEMATIC_NAME>
2-chloranyl-N,N-bis(phenylmethyl)ethanamine hydrochloride

> <PUBCHEM_IUPAC_TRADITIONAL_NAME>
dibenzyl(2-chloroethyl)amine hydrochloride

> <PUBCHEM_IUPAC_INCHI>
InChI=1S/C16H18ClN.ClH/c17-11-12-18(13-15-7-3-1-4-8-15)14-16-9-5-2-6-10-16;/h1-10H,11-14H2;1H

> <PUBCHEM_IUPAC_INCHIKEY>
LZXCEBPGNFLHEQ-UHFFFAOYSA-N

> <PUBCHEM_EXACT_MASS>
295.089455

> <PUBCHEM_MOLECULAR_FORMULA>
C16H19Cl2N

> <PUBCHEM_MOLECULAR_WEIGHT>
296.23476

> <PUBCHEM_OPENEYE_CAN_SMILES>
C1=CC=C(C=C1)CN(CCCl)CC2=CC=CC=C2.Cl

> <PUBCHEM_OPENEYE_ISO_SMILES>
C1=CC=C(C=C1)CN(CCCl)CC2=CC=CC=C2.Cl

> <PUBCHEM_CACTVS_TPSA>
3.2

> <PUBCHEM_MONOISOTOPIC_WEIGHT>
295.089455

> <PUBCHEM_TOTAL_CHARGE>
0

> <PUBCHEM_HEAVY_ATOM_COUNT>
19

> <PUBCHEM_ATOM_DEF_STEREO_COUNT>
0

> <PUBCHEM_ATOM_UDEF_STEREO_COUNT>
0

> <PUBCHEM_BOND_DEF_STEREO_COUNT>
0

> <PUBCHEM_BOND_UDEF_STEREO_COUNT>
0

> <PUBCHEM_ISOTOPIC_ATOM_COUNT>
0

> <PUBCHEM_COMPONENT_COUNT>
2

> <PUBCHEM_CACTVS_TAUTO_COUNT>
1

> <PUBCHEM_COORDINATE_TYPE>
1
5
255

> <PUBCHEM_BONDANNOTATIONS>
10  15  8
11  14  8
12  17  8
13  16  8
14  18  8
15  19  8
16  18  8
17  19  8
7  11  8
7  13  8
8  10  8
8  12  8

$$$$

