47205629
  -OEChem-06241222592D

 30 32  0     0  0  0  0  0  0999 V2000
    2.8660   -4.6056    0.0000 Br  0  0  0  0  0  0  0  0  0  0  0  0
    3.5471    2.6558    0.0000 O   0  0  0  0  0  0  0  0  0  0  0  0
    2.3660    0.9332    0.0000 N   0  0  0  0  0  0  0  0  0  0  0  0
    2.0570   -0.0178    0.0000 N   0  0  0  0  0  0  0  0  0  0  0  0
    4.9483    1.6377    0.0000 N   0  0  0  0  0  0  0  0  0  0  0  0
    6.0361    3.9856    0.0000 N   0  0  0  0  0  0  0  0  0  0  0  0
    6.8451    3.3978    0.0000 N   0  0  0  0  0  0  0  0  0  0  0  0
    2.8660   -0.6056    0.0000 C   0  0  0  0  0  0  0  0  0  0  0  0
    3.3660    0.9332    0.0000 C   0  0  0  0  0  0  0  0  0  0  0  0
    2.8660   -1.6056    0.0000 C   0  0  0  0  0  0  0  0  0  0  0  0
    3.6750   -0.0178    0.0000 C   0  0  0  0  0  0  0  0  0  0  0  0
    3.9538    1.7423    0.0000 C   0  0  0  0  0  0  0  0  0  0  0  0
    2.0000   -2.1056    0.0000 C   0  0  0  0  0  0  0  0  0  0  0  0
    3.7320   -2.1056    0.0000 C   0  0  0  0  0  0  0  0  0  0  0  0
    5.5361    2.4468    0.0000 C   0  0  0  0  0  0  0  0  0  0  0  0
    2.0000   -3.1056    0.0000 C   0  0  0  0  0  0  0  0  0  0  0  0
    3.7320   -3.1056    0.0000 C   0  0  0  0  0  0  0  0  0  0  0  0
    2.8660   -3.6056    0.0000 C   0  0  0  0  0  0  0  0  0  0  0  0
    5.2271    3.3978    0.0000 C   0  0  0  0  0  0  0  0  0  0  0  0
    6.5361    2.4468    0.0000 C   0  0  0  0  0  0  0  0  0  0  0  0
    4.2647   -0.2094    0.0000 H   0  0  0  0  0  0  0  0  0  0  0  0
    2.0016    1.4348    0.0000 H   0  0  0  0  0  0  0  0  0  0  0  0
    1.4631   -1.7956    0.0000 H   0  0  0  0  0  0  0  0  0  0  0  0
    4.2690   -1.7956    0.0000 H   0  0  0  0  0  0  0  0  0  0  0  0
    5.2005    1.0713    0.0000 H   0  0  0  0  0  0  0  0  0  0  0  0
    1.4631   -3.4156    0.0000 H   0  0  0  0  0  0  0  0  0  0  0  0
    4.2690   -3.4156    0.0000 H   0  0  0  0  0  0  0  0  0  0  0  0
    4.6374    3.5894    0.0000 H   0  0  0  0  0  0  0  0  0  0  0  0
    6.9006    1.9452    0.0000 H   0  0  0  0  0  0  0  0  0  0  0  0
    6.0361    4.6056    0.0000 H   0  0  0  0  0  0  0  0  0  0  0  0
  1 18  1  0  0  0  0
  2 12  2  0  0  0  0
  3  4  1  0  0  0  0
  3  9  1  0  0  0  0
  3 22  1  0  0  0  0
  4  8  2  0  0  0  0
  5 12  1  0  0  0  0
  5 15  1  0  0  0  0
  5 25  1  0  0  0  0
  6  7  1  0  0  0  0
  6 19  1  0  0  0  0
  6 30  1  0  0  0  0
  7 20  2  0  0  0  0
  8 10  1  0  0  0  0
  8 11  1  0  0  0  0
  9 11  2  0  0  0  0
  9 12  1  0  0  0  0
 10 13  2  0  0  0  0
 10 14  1  0  0  0  0
 11 21  1  0  0  0  0
 13 16  1  0  0  0  0
 13 23  1  0  0  0  0
 14 17  2  0  0  0  0
 14 24  1  0  0  0  0
 15 19  2  0  0  0  0
 15 20  1  0  0  0  0
 16 18  2  0  0  0  0
 16 26  1  0  0  0  0
 17 18  1  0  0  0  0
 17 27  1  0  0  0  0
 19 28  1  0  0  0  0
 20 29  1  0  0  0  0
M  END
> <PUBCHEM_COMPOUND_CID>
47205629

> <PUBCHEM_COMPOUND_CANONICALIZED>
1

> <PUBCHEM_CACTVS_COMPLEXITY>
348

> <PUBCHEM_CACTVS_HBOND_ACCEPTOR>
3

> <PUBCHEM_CACTVS_HBOND_DONOR>
3

> <PUBCHEM_CACTVS_ROTATABLE_BOND>
3

> <PUBCHEM_CACTVS_SUBSKEYS>
AAADccBzoAAAEAAAAAAAAAAAAAAAAWLAAAAwAAAAAAAAAAAB8AAAHgBYAAABrAjBngQ8wJLjAACqAzV3UACSBAAnkgQYuaGwdPgIYLKA1dGUpQhgnACIy5cciICOAgAAAAAAAAAEAAAAAAAAAAAAAAAAAA==

> <PUBCHEM_IUPAC_OPENEYE_NAME>
3-(4-bromophenyl)-N-(1H-pyrazol-4-yl)-1H-pyrazole-5-carboxamide

> <PUBCHEM_IUPAC_CAS_NAME>
3-(4-bromophenyl)-N-(1H-pyrazol-4-yl)-1H-pyrazole-5-carboxamide

> <PUBCHEM_IUPAC_NAME>
3-(4-bromophenyl)-N-(1H-pyrazol-4-yl)-1H-pyrazole-5-carboxamide

> <PUBCHEM_IUPAC_SYSTEMATIC_NAME>
3-(4-bromophenyl)-N-(1H-pyrazol-4-yl)-1H-pyrazole-5-carboxamide

> <PUBCHEM_IUPAC_TRADITIONAL_NAME>
3-(4-bromophenyl)-N-(1H-pyrazol-4-yl)-1H-pyrazole-5-carboxamide

> <PUBCHEM_IUPAC_INCHI>
InChI=1S/C13H10BrN5O/c14-9-3-1-8(2-4-9)11-5-12(19-18-11)13(20)17-10-6-15-16-7-10/h1-7H,(H,15,16)(H,17,20)(H,18,19)

> <PUBCHEM_IUPAC_INCHIKEY>
OERQBCSUYKSBIM-UHFFFAOYSA-N

> <PUBCHEM_XLOGP3_AA>
2

> <PUBCHEM_EXACT_MASS>
331.006872

> <PUBCHEM_MOLECULAR_FORMULA>
C13H10BrN5O

> <PUBCHEM_MOLECULAR_WEIGHT>
332.1554

> <PUBCHEM_OPENEYE_CAN_SMILES>
C1=CC(=CC=C1C2=NNC(=C2)C(=O)NC3=CNN=C3)Br

> <PUBCHEM_OPENEYE_ISO_SMILES>
C1=CC(=CC=C1C2=NNC(=C2)C(=O)NC3=CNN=C3)Br

> <PUBCHEM_CACTVS_TPSA>
86.5

> <PUBCHEM_MONOISOTOPIC_WEIGHT>
331.006872

> <PUBCHEM_TOTAL_CHARGE>
0

> <PUBCHEM_HEAVY_ATOM_COUNT>
20

> <PUBCHEM_ATOM_DEF_STEREO_COUNT>
0

> <PUBCHEM_ATOM_UDEF_STEREO_COUNT>
0

> <PUBCHEM_BOND_DEF_STEREO_COUNT>
0

> <PUBCHEM_BOND_UDEF_STEREO_COUNT>
0

> <PUBCHEM_ISOTOPIC_ATOM_COUNT>
0

> <PUBCHEM_COMPONENT_COUNT>
1

> <PUBCHEM_CACTVS_TAUTO_COUNT>
9

> <PUBCHEM_COORDINATE_TYPE>
1
5
255

> <PUBCHEM_BONDANNOTATIONS>
10  13  8
10  14  8
13  16  8
14  17  8
15  19  8
15  20  8
16  18  8
17  18  8
3  4  8
3  9  8
4  8  8
6  19  8
6  7  8
7  20  8
8  11  8
9  11  8

$$$$

