9023
  -OEChem-06261203203D

 15 14  0     0  0  0  0  0  0999 V2000
    2.5855    0.0002    0.2944 O   0  0  0  0  0  0  0  0  0  0  0  0
    1.4399   -0.0004   -0.5050 N   0  0  0  0  0  0  0  0  0  0  0  0
   -0.9888    0.0000   -0.3193 C   0  0  0  0  0  0  0  0  0  0  0  0
   -1.7195    1.2580    0.1325 C   0  0  0  0  0  0  0  0  0  0  0  0
   -1.7202   -1.2577    0.1327 C   0  0  0  0  0  0  0  0  0  0  0  0
    0.4031   -0.0001    0.2646 C   0  0  0  0  0  0  0  0  0  0  0  0
   -0.9143   -0.0002   -1.4131 H   0  0  0  0  0  0  0  0  0  0  0  0
   -1.8068    1.3008    1.2240 H   0  0  0  0  0  0  0  0  0  0  0  0
   -1.1804    2.1562   -0.1884 H   0  0  0  0  0  0  0  0  0  0  0  0
   -2.7279    1.2974   -0.2922 H   0  0  0  0  0  0  0  0  0  0  0  0
   -2.7285   -1.2966   -0.2920 H   0  0  0  0  0  0  0  0  0  0  0  0
   -1.1816   -2.1561   -0.1881 H   0  0  0  0  0  0  0  0  0  0  0  0
   -1.8073   -1.3003    1.2242 H   0  0  0  0  0  0  0  0  0  0  0  0
    0.4913    0.0003    1.3666 H   0  0  0  0  0  0  0  0  0  0  0  0
    3.2907    0.0001   -0.3748 H   0  0  0  0  0  0  0  0  0  0  0  0
  1  2  1  0  0  0  0
  1 15  1  0  0  0  0
  2  6  2  0  0  0  0
  3  4  1  0  0  0  0
  3  5  1  0  0  0  0
  3  6  1  0  0  0  0
  3  7  1  0  0  0  0
  4  8  1  0  0  0  0
  4  9  1  0  0  0  0
  4 10  1  0  0  0  0
  5 11  1  0  0  0  0
  5 12  1  0  0  0  0
  5 13  1  0  0  0  0
  6 14  1  0  0  0  0
M  END
> <PUBCHEM_COMPOUND_CID>
9023

> <PUBCHEM_CONFORMER_RMSD>
0.4

> <PUBCHEM_CONFORMER_DIVERSEORDER>
1

> <PUBCHEM_MMFF94_PARTIAL_CHARGES>
6
1 -0.34
14 0.06
15 0.4
2 -0.51
3 0.06
6 0.33

> <PUBCHEM_EFFECTIVE_ROTOR_COUNT>
1

> <PUBCHEM_PHARMACOPHORE_FEATURES>
3
1 1 anion
1 2 acceptor
3 3 4 5 hydrophobe

> <PUBCHEM_HEAVY_ATOM_COUNT>
6

> <PUBCHEM_ATOM_DEF_STEREO_COUNT>
0

> <PUBCHEM_ATOM_UDEF_STEREO_COUNT>
0

> <PUBCHEM_BOND_DEF_STEREO_COUNT>
0

> <PUBCHEM_BOND_UDEF_STEREO_COUNT>
1

> <PUBCHEM_ISOTOPIC_ATOM_COUNT>
0

> <PUBCHEM_COMPONENT_COUNT>
1

> <PUBCHEM_CACTVS_TAUTO_COUNT>
2

> <PUBCHEM_CONFORMER_ID>
0000233F00000001

> <PUBCHEM_MMFF94_ENERGY>
3.5378

> <PUBCHEM_FEATURE_SELFOVERLAP>
15.223

> <PUBCHEM_SHAPE_FINGERPRINT>
139733 1 9150636581298453615
16714656 1 18410852166273322181
20096714 4 18268427008920743421
21040471 1 18194678391837632597
23552449 1 18335703823295661881
24536 1 18409736161654690036
29004967 10 17167855344598249794
5460574 1 9583524221869643294
5943 1 16158780541403804879

> <PUBCHEM_SHAPE_MULTIPOLES>
112.63
3
1.16
0.67
1.88
0
-0.01
0
0.19
-0.95
0.07
0.01
0
0

> <PUBCHEM_SHAPE_SELFOVERLAP>
197.307

> <PUBCHEM_SHAPE_VOLUME>
75.6

> <PUBCHEM_COORDINATE_TYPE>
2
5
10

$$$$

