9804
  -OEChem-06261204053D

 54 54  0     0  0  0  0  0  0999 V2000
    0.8528   -0.1555   -0.1072 O   0  0  0  0  0  0  0  0  0  0  0  0
    0.0110    1.8066   -0.9680 O   0  0  0  0  0  0  0  0  0  0  0  0
   -2.4723    2.2189    0.0813 O   0  0  0  0  0  0  0  0  0  0  0  0
   -4.9254    1.0314    0.4826 O   0  0  0  0  0  0  0  0  0  0  0  0
   -5.1680   -1.7221    0.3275 O   0  0  0  0  0  0  0  0  0  0  0  0
    4.5802   -0.1916    0.0677 N   0  3  0  0  0  0  0  0  0  0  0  0
    3.1626   -0.7270    0.2083 C   0  0  0  0  0  0  0  0  0  0  0  0
    4.7111    0.5579   -1.2503 C   0  0  0  0  0  0  0  0  0  0  0  0
    5.5651   -1.3516    0.0916 C   0  0  0  0  0  0  0  0  0  0  0  0
    4.8821    0.7542    1.2211 C   0  0  0  0  0  0  0  0  0  0  0  0
    2.1808    0.3245   -0.2696 C   0  0  0  0  0  0  0  0  0  0  0  0
    4.4100   -0.3871   -2.3930 C   0  0  0  0  0  0  0  0  0  0  0  0
    5.4303   -2.0926    1.4039 C   0  0  0  0  0  0  0  0  0  0  0  0
    6.2924    1.2829    1.0760 C   0  0  0  0  0  0  0  0  0  0  0  0
   -0.1409    0.6898   -0.4979 C   0  0  0  0  0  0  0  0  0  0  0  0
   -1.4736    0.0737   -0.2762 C   0  0  0  0  0  0  0  0  0  0  0  0
   -2.5898    0.8618    0.0042 C   0  0  0  0  0  0  0  0  0  0  0  0
   -1.6005   -1.3132   -0.3532 C   0  0  0  0  0  0  0  0  0  0  0  0
   -3.8331    0.2628    0.2079 C   0  0  0  0  0  0  0  0  0  0  0  0
   -2.8435   -1.9122   -0.1495 C   0  0  0  0  0  0  0  0  0  0  0  0
   -3.9599   -1.1243    0.1309 C   0  0  0  0  0  0  0  0  0  0  0  0
   -2.1692    2.7695    1.3605 C   0  0  0  0  0  0  0  0  0  0  0  0
   -5.6916    1.4876   -0.6296 C   0  0  0  0  0  0  0  0  0  0  0  0
   -5.2106   -3.1445    0.2312 C   0  0  0  0  0  0  0  0  0  0  0  0
    2.9681   -0.9556    1.2628 H   0  0  0  0  0  0  0  0  0  0  0  0
    3.0548   -1.6622   -0.3531 H   0  0  0  0  0  0  0  0  0  0  0  0
    5.7541    0.8645   -1.3747 H   0  0  0  0  0  0  0  0  0  0  0  0
    4.1099    1.4721   -1.2414 H   0  0  0  0  0  0  0  0  0  0  0  0
    6.5812   -1.0035   -0.1095 H   0  0  0  0  0  0  0  0  0  0  0  0
    5.2938   -2.0522   -0.7046 H   0  0  0  0  0  0  0  0  0  0  0  0
    4.7153    0.2523    2.1779 H   0  0  0  0  0  0  0  0  0  0  0  0
    4.1823    1.5943    1.1675 H   0  0  0  0  0  0  0  0  0  0  0  0
    2.2707    0.5608   -1.3313 H   0  0  0  0  0  0  0  0  0  0  0  0
    2.2723    1.2492    0.3093 H   0  0  0  0  0  0  0  0  0  0  0  0
    4.3380    0.2035   -3.3149 H   0  0  0  0  0  0  0  0  0  0  0  0
    3.4802   -0.9537   -2.3258 H   0  0  0  0  0  0  0  0  0  0  0  0
    5.2283   -1.0925   -2.5710 H   0  0  0  0  0  0  0  0  0  0  0  0
    6.0765   -2.9785    1.3637 H   0  0  0  0  0  0  0  0  0  0  0  0
    4.4261   -2.4712    1.6072 H   0  0  0  0  0  0  0  0  0  0  0  0
    5.7821   -1.5188    2.2648 H   0  0  0  0  0  0  0  0  0  0  0  0
    6.4855    1.9510    1.9255 H   0  0  0  0  0  0  0  0  0  0  0  0
    6.4503    1.9042    0.1920 H   0  0  0  0  0  0  0  0  0  0  0  0
    7.0708    0.5198    1.1348 H   0  0  0  0  0  0  0  0  0  0  0  0
   -0.7517   -1.9519   -0.5834 H   0  0  0  0  0  0  0  0  0  0  0  0
   -2.8675   -2.9936   -0.2276 H   0  0  0  0  0  0  0  0  0  0  0  0
   -2.9826    2.5707    2.0653 H   0  0  0  0  0  0  0  0  0  0  0  0
   -1.2303    2.3627    1.7493 H   0  0  0  0  0  0  0  0  0  0  0  0
   -2.0606    3.8519    1.2499 H   0  0  0  0  0  0  0  0  0  0  0  0
   -5.0817    2.1161   -1.2861 H   0  0  0  0  0  0  0  0  0  0  0  0
   -6.0971    0.6406   -1.1919 H   0  0  0  0  0  0  0  0  0  0  0  0
   -6.5247    2.0852   -0.2495 H   0  0  0  0  0  0  0  0  0  0  0  0
   -6.2462   -3.4489    0.4157 H   0  0  0  0  0  0  0  0  0  0  0  0
   -4.5973   -3.6201    1.0041 H   0  0  0  0  0  0  0  0  0  0  0  0
   -4.9533   -3.4887   -0.7764 H   0  0  0  0  0  0  0  0  0  0  0  0
  1 11  1  0  0  0  0
  1 15  1  0  0  0  0
  2 15  2  0  0  0  0
  3 17  1  0  0  0  0
  3 22  1  0  0  0  0
  4 19  1  0  0  0  0
  4 23  1  0  0  0  0
  5 21  1  0  0  0  0
  5 24  1  0  0  0  0
  6  7  1  0  0  0  0
  6  8  1  0  0  0  0
  6  9  1  0  0  0  0
  6 10  1  0  0  0  0
  7 11  1  0  0  0  0
  7 25  1  0  0  0  0
  7 26  1  0  0  0  0
  8 12  1  0  0  0  0
  8 27  1  0  0  0  0
  8 28  1  0  0  0  0
  9 13  1  0  0  0  0
  9 29  1  0  0  0  0
  9 30  1  0  0  0  0
 10 14  1  0  0  0  0
 10 31  1  0  0  0  0
 10 32  1  0  0  0  0
 11 33  1  0  0  0  0
 11 34  1  0  0  0  0
 12 35  1  0  0  0  0
 12 36  1  0  0  0  0
 12 37  1  0  0  0  0
 13 38  1  0  0  0  0
 13 39  1  0  0  0  0
 13 40  1  0  0  0  0
 14 41  1  0  0  0  0
 14 42  1  0  0  0  0
 14 43  1  0  0  0  0
 15 16  1  0  0  0  0
 16 17  2  0  0  0  0
 16 18  1  0  0  0  0
 17 19  1  0  0  0  0
 18 20  2  0  0  0  0
 18 44  1  0  0  0  0
 19 21  2  0  0  0  0
 20 21  1  0  0  0  0
 20 45  1  0  0  0  0
 22 46  1  0  0  0  0
 22 47  1  0  0  0  0
 22 48  1  0  0  0  0
 23 49  1  0  0  0  0
 23 50  1  0  0  0  0
 23 51  1  0  0  0  0
 24 52  1  0  0  0  0
 24 53  1  0  0  0  0
 24 54  1  0  0  0  0
M  CHG  1   6   1
M  END
> <PUBCHEM_COMPOUND_CID>
9804

> <PUBCHEM_CONFORMER_RMSD>
1

> <PUBCHEM_CONFORMER_DIVERSEORDER>
1
40
60
76
35
49
78
65
2
37
14
57
12
73
27
80
4
15
46
24
70
29
79
5
34
18
42
19
13
77
47
51
50
3
44
48
30
52
17
38
7
61
16
31
71
36
25
75
32
39
45
67
20
62
68
10
22
9
64
28
26
33
63
6
11
53
56
8
81
21
69
41
23
74
43
82
58
55
59
54
66
72

> <PUBCHEM_MMFF94_PARTIAL_CHARGES>
23
1 -0.43
10 0.5
11 0.28
15 0.63
16 0.09
17 0.08
18 -0.15
19 0.08
2 -0.57
20 -0.15
21 0.08
22 0.28
23 0.28
24 0.28
3 -0.36
4 -0.36
44 0.15
45 0.15
5 -0.36
6 -1.01
7 0.5
8 0.5
9 0.5

> <PUBCHEM_EFFECTIVE_ROTOR_COUNT>
11

> <PUBCHEM_PHARMACOPHORE_FEATURES>
6
1 2 acceptor
1 3 acceptor
1 4 acceptor
1 5 acceptor
1 6 cation
6 16 17 18 19 20 21 rings

> <PUBCHEM_HEAVY_ATOM_COUNT>
24

> <PUBCHEM_ATOM_DEF_STEREO_COUNT>
0

> <PUBCHEM_ATOM_UDEF_STEREO_COUNT>
0

> <PUBCHEM_BOND_DEF_STEREO_COUNT>
0

> <PUBCHEM_BOND_UDEF_STEREO_COUNT>
0

> <PUBCHEM_ISOTOPIC_ATOM_COUNT>
0

> <PUBCHEM_COMPONENT_COUNT>
1

> <PUBCHEM_CACTVS_TAUTO_COUNT>
1

> <PUBCHEM_CONFORMER_ID>
0000264C00000001

> <PUBCHEM_MMFF94_ENERGY>
115.258

> <PUBCHEM_FEATURE_SELFOVERLAP>
30.462

> <PUBCHEM_SHAPE_FINGERPRINT>
10595046 47 18343579621391555036
11315181 36 18412259554042050272
12107183 9 17690845979234021242
12236239 1 17989203750603861142
12596602 18 18412832373877557250
12616971 3 17132113541631033686
13073987 5 18409171013358469410
13167823 11 18342741844970882378
14341114 176 18334575746225457368
15788980 27 17418094347341942822
17349148 13 17346877866898835458
17844677 252 18261105284172575912
17857418 61 18273216430416876090
1813 80 17418377987003458516
20645477 70 15841547488374565522
21033648 29 16588311639200420760
21267235 1 18341039719472227319
220451 1 18201430406923560862
2297311 6 18187630393312060629
23081809 10 17561359565294647022
23402539 116 18409733963074494327
23559900 14 18335430036574454329
239999 70 18186795865015200782
3004659 81 18131348644419573678
34797466 226 17603300453785303716
4073 2 18201718423631505050
4214541 1 18411138060391585252
5104073 3 18334574629043077625
559249 180 18272092712517073415
7226269 152 18261113024009975217
90127 26 17240757432586622652

> <PUBCHEM_SHAPE_MULTIPOLES>
459.58
16.33
2.65
1.3
9.11
0.47
0.4
3.67
-2.38
-3.44
-0.8
2.18
-0.15
-0.06

> <PUBCHEM_SHAPE_SELFOVERLAP>
926.322

> <PUBCHEM_SHAPE_VOLUME>
272

> <PUBCHEM_COORDINATE_TYPE>
2
5
10

$$$$

