5406
  -OEChem-06261200402D

 53 56  0     1  0  0  0  0  0999 V2000
    5.4641    2.6286    0.0000 O   0  0  0  0  0  0  0  0  0  0  0  0
    7.2719    0.6217    0.0000 N   0  0  3  0  0  0  0  0  0  0  0  0
    4.6038    1.1253    0.0000 N   0  0  0  0  0  0  0  0  0  0  0  0
    8.2599   -3.5685    0.0000 N   0  0  0  0  0  0  0  0  0  0  0  0
    3.7320    2.6219    0.0000 N   0  0  0  0  0  0  0  0  0  0  0  0
    6.3898   -0.9198    0.0000 C   0  0  3  0  0  0  0  0  0  0  0  0
    7.2558   -0.4198    0.0000 C   0  0  3  0  0  0  0  0  0  0  0  0
    5.4798   -0.4130    0.0000 C   0  0  0  0  0  0  0  0  0  0  0  0
    5.4718    0.6286    0.0000 C   0  0  3  0  0  0  0  0  0  0  0  0
    8.1219   -0.9198    0.0000 C   0  0  0  0  0  0  0  0  0  0  0  0
    6.3739    1.1494    0.0000 C   0  0  0  0  0  0  0  0  0  0  0  0
    6.3898   -1.9198    0.0000 C   0  0  0  0  0  0  0  0  0  0  0  0
    7.2558   -2.4198    0.0000 C   0  0  0  0  0  0  0  0  0  0  0  0
    8.1219   -1.9198    0.0000 C   0  0  0  0  0  0  0  0  0  0  0  0
    7.2719   -3.4613    0.0000 C   0  0  0  0  0  0  0  0  0  0  0  0
    8.1436    1.1116    0.0000 C   0  0  0  0  0  0  0  0  0  0  0  0
    5.4798   -2.4267    0.0000 C   0  0  0  0  0  0  0  0  0  0  0  0
    8.7398   -2.6982    0.0000 C   0  0  0  0  0  0  0  0  0  0  0  0
    6.3739   -3.9891    0.0000 C   0  0  0  0  0  0  0  0  0  0  0  0
    5.4718   -3.4683    0.0000 C   0  0  0  0  0  0  0  0  0  0  0  0
    4.6000    2.1253    0.0000 C   0  0  0  0  0  0  0  0  0  0  0  0
    3.7282    3.6219    0.0000 C   0  0  0  0  0  0  0  0  0  0  0  0
    2.8680    2.1186    0.0000 C   0  0  0  0  0  0  0  0  0  0  0  0
    2.8602    4.1186    0.0000 C   0  0  0  0  0  0  0  0  0  0  0  0
    2.0000    2.6152    0.0000 C   0  0  0  0  0  0  0  0  0  0  0  0
    5.6570   -1.3505    0.0000 H   0  0  0  0  0  0  0  0  0  0  0  0
    7.9952   -0.0005    0.0000 H   0  0  0  0  0  0  0  0  0  0  0  0
    4.8682   -0.3116    0.0000 H   0  0  0  0  0  0  0  0  0  0  0  0
    5.2753   -0.9983    0.0000 H   0  0  0  0  0  0  0  0  0  0  0  0
    5.4702    1.4786    0.0000 H   0  0  0  0  0  0  0  0  0  0  0  0
    8.7324   -1.0275    0.0000 H   0  0  0  0  0  0  0  0  0  0  0  0
    8.3339   -0.3372    0.0000 H   0  0  0  0  0  0  0  0  0  0  0  0
    6.7748    1.6223    0.0000 H   0  0  0  0  0  0  0  0  0  0  0  0
    5.9766    1.6254    0.0000 H   0  0  0  0  0  0  0  0  0  0  0  0
    8.4474    0.5711    0.0000 H   0  0  0  0  0  0  0  0  0  0  0  0
    8.6841    1.4154    0.0000 H   0  0  0  0  0  0  0  0  0  0  0  0
    7.8399    1.6521    0.0000 H   0  0  0  0  0  0  0  0  0  0  0  0
    4.0681    0.8132    0.0000 H   0  0  0  0  0  0  0  0  0  0  0  0
    4.9465   -2.1105    0.0000 H   0  0  0  0  0  0  0  0  0  0  0  0
    9.3576   -2.6465    0.0000 H   0  0  0  0  0  0  0  0  0  0  0  0
    8.5459   -4.1186    0.0000 H   0  0  0  0  0  0  0  0  0  0  0  0
    6.3762   -4.6091    0.0000 H   0  0  0  0  0  0  0  0  0  0  0  0
    4.9337   -3.7762    0.0000 H   0  0  0  0  0  0  0  0  0  0  0  0
    4.3392    3.5166    0.0000 H   0  0  0  0  0  0  0  0  0  0  0  0
    3.9380    4.2053    0.0000 H   0  0  0  0  0  0  0  0  0  0  0  0
    2.4712    1.6421    0.0000 H   0  0  0  0  0  0  0  0  0  0  0  0
    3.2683    1.6452    0.0000 H   0  0  0  0  0  0  0  0  0  0  0  0
    2.3079    3.1534    0.0000 H   0  0  0  0  0  0  0  0  0  0  0  0
    1.4619    2.9232    0.0000 H   0  0  0  0  0  0  0  0  0  0  0  0
    1.6921    2.0771    0.0000 H   0  0  0  0  0  0  0  0  0  0  0  0
    3.1682    4.6567    0.0000 H   0  0  0  0  0  0  0  0  0  0  0  0
    2.3221    4.4265    0.0000 H   0  0  0  0  0  0  0  0  0  0  0  0
    2.5523    3.5804    0.0000 H   0  0  0  0  0  0  0  0  0  0  0  0
  1 21  2  0  0  0  0
  2  7  1  0  0  0  0
  2 11  1  0  0  0  0
  2 16  1  0  0  0  0
  3  9  1  0  0  0  0
  3 21  1  0  0  0  0
  3 38  1  0  0  0  0
  4 15  1  0  0  0  0
  4 18  1  0  0  0  0
  4 41  1  0  0  0  0
  5 21  1  0  0  0  0
  5 22  1  0  0  0  0
  5 23  1  0  0  0  0
  6  7  1  0  0  0  0
  6  8  1  0  0  0  0
  6 12  1  0  0  0  0
  6 26  1  0  0  0  0
  7 10  1  0  0  0  0
  7 27  1  0  0  0  0
  8  9  1  0  0  0  0
  8 28  1  0  0  0  0
  8 29  1  0  0  0  0
  9 11  1  0  0  0  0
  9 30  1  0  0  0  0
 10 14  1  0  0  0  0
 10 31  1  0  0  0  0
 10 32  1  0  0  0  0
 11 33  1  0  0  0  0
 11 34  1  0  0  0  0
 12 13  2  0  0  0  0
 12 17  1  0  0  0  0
 13 14  1  0  0  0  0
 13 15  1  0  0  0  0
 14 18  2  0  0  0  0
 15 19  2  0  0  0  0
 16 35  1  0  0  0  0
 16 36  1  0  0  0  0
 16 37  1  0  0  0  0
 17 20  2  0  0  0  0
 17 39  1  0  0  0  0
 18 40  1  0  0  0  0
 19 20  1  0  0  0  0
 19 42  1  0  0  0  0
 20 43  1  0  0  0  0
 22 24  1  0  0  0  0
 22 44  1  0  0  0  0
 22 45  1  0  0  0  0
 23 25  1  0  0  0  0
 23 46  1  0  0  0  0
 23 47  1  0  0  0  0
 24 51  1  0  0  0  0
 24 52  1  0  0  0  0
 24 53  1  0  0  0  0
 25 48  1  0  0  0  0
 25 49  1  0  0  0  0
 25 50  1  0  0  0  0
M  END
> <PUBCHEM_COMPOUND_CID>
5406

> <PUBCHEM_COMPOUND_CANONICALIZED>
1

> <PUBCHEM_CACTVS_COMPLEXITY>
494

> <PUBCHEM_CACTVS_HBOND_ACCEPTOR>
2

> <PUBCHEM_CACTVS_HBOND_DONOR>
2

> <PUBCHEM_CACTVS_ROTATABLE_BOND>
3

> <PUBCHEM_CACTVS_SUBSKEYS>
AAADceB7oAAAAAAAAAAAAAAAAAAAAWAAAAA8YIAAAAAAAFjx8AAAHgAQAAAADSjBHgQ/wPPJkACoAzRnVACCgCAxAiAI2aA4ZJiIYOLAkZGUIAholgLIyAcQgMAOgAAAQAASAACQAASAACQAAAAAAAAAAA==

> <PUBCHEM_IUPAC_OPENEYE_NAME>
1,1-diethyl-3-(7-methyl-6,6a,8,9,10,10a-hexahydro-4H-indolo[4,3-fg]quinoline-9-yl)urea

> <PUBCHEM_IUPAC_CAS_NAME>
1,1-diethyl-3-(7-methyl-6,6a,8,9,10,10a-hexahydro-4H-indolo[4,3-fg]quinoline-9-yl)urea

> <PUBCHEM_IUPAC_NAME>
1,1-diethyl-3-(7-methyl-6,6a,8,9,10,10a-hexahydro-4H-indolo[4,3-fg]quinoline-9-yl)urea

> <PUBCHEM_IUPAC_SYSTEMATIC_NAME>
1,1-diethyl-3-(7-methyl-6,6a,8,9,10,10a-hexahydro-4H-indolo[4,3-fg]quinoline-9-yl)urea

> <PUBCHEM_IUPAC_TRADITIONAL_NAME>
1,1-diethyl-3-(7-methyl-6,6a,8,9,10,10a-hexahydro-4H-indolo[4,3-fg]quinoline-9-yl)urea

> <PUBCHEM_IUPAC_INCHI>
InChI=1S/C20H28N4O/c1-4-24(5-2)20(25)22-14-10-16-15-7-6-8-17-19(15)13(11-21-17)9-18(16)23(3)12-14/h6-8,11,14,16,18,21H,4-5,9-10,12H2,1-3H3,(H,22,25)

> <PUBCHEM_IUPAC_INCHIKEY>
JOAHPSVPXZTVEP-UHFFFAOYSA-N

> <PUBCHEM_XLOGP3_AA>
2.5

> <PUBCHEM_EXACT_MASS>
340.226312

> <PUBCHEM_MOLECULAR_FORMULA>
C20H28N4O

> <PUBCHEM_MOLECULAR_WEIGHT>
340.46252

> <PUBCHEM_OPENEYE_CAN_SMILES>
CCN(CC)C(=O)NC1CC2C(CC3=CNC4=CC=CC2=C34)N(C1)C

> <PUBCHEM_OPENEYE_ISO_SMILES>
CCN(CC)C(=O)NC1CC2C(CC3=CNC4=CC=CC2=C34)N(C1)C

> <PUBCHEM_CACTVS_TPSA>
51.4

> <PUBCHEM_MONOISOTOPIC_WEIGHT>
340.226312

> <PUBCHEM_TOTAL_CHARGE>
0

> <PUBCHEM_HEAVY_ATOM_COUNT>
25

> <PUBCHEM_ATOM_DEF_STEREO_COUNT>
0

> <PUBCHEM_ATOM_UDEF_STEREO_COUNT>
3

> <PUBCHEM_BOND_DEF_STEREO_COUNT>
0

> <PUBCHEM_BOND_UDEF_STEREO_COUNT>
0

> <PUBCHEM_ISOTOPIC_ATOM_COUNT>
0

> <PUBCHEM_COMPONENT_COUNT>
1

> <PUBCHEM_CACTVS_TAUTO_COUNT>
2

> <PUBCHEM_COORDINATE_TYPE>
1
5
255

> <PUBCHEM_BONDANNOTATIONS>
12  13  8
12  17  8
13  14  8
13  15  8
14  18  8
15  19  8
17  20  8
19  20  8
4  15  8
4  18  8
6  26  3
7  27  3
9  30  3

$$$$

