583335
  -OEChem-06241222453D

 20 20  0     1  0  0  0  0  0999 V2000
    3.1352   -0.1894   -1.2168 O   0  0  0  0  0  0  0  0  0  0  0  0
   -4.2488   -0.2111    0.0020 N   0  0  0  0  0  0  0  0  0  0  0  0
    2.6020    0.3279    0.0079 C   0  0  1  0  0  0  0  0  0  0  0  0
    1.1152    0.2112    0.0069 C   0  0  0  0  0  0  0  0  0  0  0  0
    0.3251    1.3595    0.0588 C   0  0  0  0  0  0  0  0  0  0  0  0
    0.5148   -1.0466   -0.0472 C   0  0  0  0  0  0  0  0  0  0  0  0
    3.2542   -0.4175    1.1764 C   0  0  0  0  0  0  0  0  0  0  0  0
   -1.0655    1.2500    0.0567 C   0  0  0  0  0  0  0  0  0  0  0  0
   -0.8758   -1.1562   -0.0495 C   0  0  0  0  0  0  0  0  0  0  0  0
   -1.6659   -0.0078    0.0024 C   0  0  0  0  0  0  0  0  0  0  0  0
   -3.0904   -0.1199    0.0023 C   0  0  0  0  0  0  0  0  0  0  0  0
    2.8988    1.3822    0.0609 H   0  0  0  0  0  0  0  0  0  0  0  0
    0.7775    2.3466    0.1012 H   0  0  0  0  0  0  0  0  0  0  0  0
    1.1123   -1.9527   -0.0977 H   0  0  0  0  0  0  0  0  0  0  0  0
    3.1194   -1.5017    1.0961 H   0  0  0  0  0  0  0  0  0  0  0  0
    2.8506   -0.0848    2.1382 H   0  0  0  0  0  0  0  0  0  0  0  0
    4.3361   -0.2435    1.1762 H   0  0  0  0  0  0  0  0  0  0  0  0
   -1.6680    2.1543    0.0979 H   0  0  0  0  0  0  0  0  0  0  0  0
   -1.3292   -2.1436   -0.0939 H   0  0  0  0  0  0  0  0  0  0  0  0
    4.1006   -0.0758   -1.1866 H   0  0  0  0  0  0  0  0  0  0  0  0
  1  3  1  0  0  0  0
  1 20  1  0  0  0  0
  2 11  3  0  0  0  0
  3  4  1  0  0  0  0
  3  7  1  0  0  0  0
  3 12  1  0  0  0  0
  4  5  2  0  0  0  0
  4  6  1  0  0  0  0
  5  8  1  0  0  0  0
  5 13  1  0  0  0  0
  6  9  2  0  0  0  0
  6 14  1  0  0  0  0
  7 15  1  0  0  0  0
  7 16  1  0  0  0  0
  7 17  1  0  0  0  0
  8 10  2  0  0  0  0
  8 18  1  0  0  0  0
  9 10  1  0  0  0  0
  9 19  1  0  0  0  0
 10 11  1  0  0  0  0
M  END
> <PUBCHEM_COMPOUND_CID>
583335

> <PUBCHEM_CONFORMER_RMSD>
0.4

> <PUBCHEM_CONFORMER_DIVERSEORDER>
2
4
3
1

> <PUBCHEM_MMFF94_PARTIAL_CHARGES>
15
1 -0.68
10 0.07
11 0.48
13 0.15
14 0.15
18 0.15
19 0.15
2 -0.56
20 0.4
3 0.42
4 -0.14
5 -0.15
6 -0.15
8 -0.15
9 -0.15

> <PUBCHEM_EFFECTIVE_ROTOR_COUNT>
1

> <PUBCHEM_PHARMACOPHORE_FEATURES>
4
1 1 acceptor
1 1 donor
1 2 acceptor
6 4 5 6 8 9 10 rings

> <PUBCHEM_HEAVY_ATOM_COUNT>
11

> <PUBCHEM_ATOM_DEF_STEREO_COUNT>
0

> <PUBCHEM_ATOM_UDEF_STEREO_COUNT>
1

> <PUBCHEM_BOND_DEF_STEREO_COUNT>
0

> <PUBCHEM_BOND_UDEF_STEREO_COUNT>
0

> <PUBCHEM_ISOTOPIC_ATOM_COUNT>
0

> <PUBCHEM_COMPONENT_COUNT>
1

> <PUBCHEM_CACTVS_TAUTO_COUNT>
1

> <PUBCHEM_CONFORMER_ID>
0008E6A700000002

> <PUBCHEM_MMFF94_ENERGY>
21.559

> <PUBCHEM_FEATURE_SELFOVERLAP>
20.297

> <PUBCHEM_SHAPE_FINGERPRINT>
10130415 120 18343868805148837896
10219947 1 18408885126959715507
10857977 72 18334866012541092048
11062470 55 14129058101789831747
11401426 45 18335151886023165085
12032990 46 18336256882134423415
14325111 11 18410575089105914681
14993402 34 18130498678279678772
15310529 11 16917354731317608316
16945 1 18409167714111416201
19026448 4 16081085982993899745
19026448 5 16487256577705612197
193761 8 17689435305535905075
20645476 183 17631437995606256118
21293036 1 18341043051691323732
23235685 24 18410015429134215967
23402539 116 18187942684663230789
23402655 69 18193294086168068645
23463225 33 18272094945425099490
23552423 10 17912926084751443692
2748010 2 18050286972955802815
369184 2 18342186561248870984
5084963 1 18040990769620405000

> <PUBCHEM_SHAPE_MULTIPOLES>
215.52
5.75
1.2
0.83
1.93
0.16
0.01
-0.72
-0.28
0.08
-0.02
-0.73
-0.07
-0.11

> <PUBCHEM_SHAPE_SELFOVERLAP>
445.366

> <PUBCHEM_SHAPE_VOLUME>
122.4

> <PUBCHEM_COORDINATE_TYPE>
2
5
10

$$$$

