11451
  -OEChem-06261205412D

 17 17  0     0  0  0  0  0  0999 V2000
    3.7320    1.1550    0.0000 S   0  0  0  0  0  0  0  0  0  0  0  0
    3.7320    2.1550    0.0000 O   0  0  0  0  0  0  0  0  0  0  0  0
    2.0000   -1.8450    0.0000 O   0  0  0  0  0  0  0  0  0  0  0  0
    4.7320    1.1550    0.0000 O   0  0  0  0  0  0  0  0  0  0  0  0
    2.7320    1.1550    0.0000 O   0  0  0  0  0  0  0  0  0  0  0  0
    3.7320    0.1550    0.0000 C   0  0  0  0  0  0  0  0  0  0  0  0
    2.8660   -0.3450    0.0000 C   0  0  0  0  0  0  0  0  0  0  0  0
    4.5981   -0.3450    0.0000 C   0  0  0  0  0  0  0  0  0  0  0  0
    2.8660   -1.3450    0.0000 C   0  0  0  0  0  0  0  0  0  0  0  0
    4.5981   -1.3450    0.0000 C   0  0  0  0  0  0  0  0  0  0  0  0
    3.7320   -1.8450    0.0000 C   0  0  0  0  0  0  0  0  0  0  0  0
    2.3291   -0.0350    0.0000 H   0  0  0  0  0  0  0  0  0  0  0  0
    5.1350   -0.0350    0.0000 H   0  0  0  0  0  0  0  0  0  0  0  0
    5.1350   -1.6550    0.0000 H   0  0  0  0  0  0  0  0  0  0  0  0
    3.7320   -2.4650    0.0000 H   0  0  0  0  0  0  0  0  0  0  0  0
    4.2690    2.4650    0.0000 H   0  0  0  0  0  0  0  0  0  0  0  0
    2.0000   -2.4650    0.0000 H   0  0  0  0  0  0  0  0  0  0  0  0
  1  2  1  0  0  0  0
  1  4  2  0  0  0  0
  1  5  2  0  0  0  0
  1  6  1  0  0  0  0
  2 16  1  0  0  0  0
  3  9  1  0  0  0  0
  3 17  1  0  0  0  0
  6  7  1  0  0  0  0
  6  8  2  0  0  0  0
  7  9  2  0  0  0  0
  7 12  1  0  0  0  0
  8 10  1  0  0  0  0
  8 13  1  0  0  0  0
  9 11  1  0  0  0  0
 10 11  2  0  0  0  0
 10 14  1  0  0  0  0
 11 15  1  0  0  0  0
M  END
> <PUBCHEM_COMPOUND_CID>
11451

> <PUBCHEM_COMPOUND_CANONICALIZED>
1

> <PUBCHEM_CACTVS_COMPLEXITY>
215

> <PUBCHEM_CACTVS_HBOND_ACCEPTOR>
4

> <PUBCHEM_CACTVS_HBOND_DONOR>
2

> <PUBCHEM_CACTVS_ROTATABLE_BOND>
1

> <PUBCHEM_CACTVS_SUBSKEYS>
AAADcYBgOABAAAAAAAAAAAAAAAAAAAAAAAAwAAAAAAAAAAABAAAAGgQACAAACASA0AAwB4AAAoKAACBCAHBCAEAgIAAIiBgGCIgIJiKCERKAcAAkwBEImAeAQAAAAAAABAAAAAAAAAAIAAAAAAAAAAAAAA==

> <PUBCHEM_IUPAC_OPENEYE_NAME>
3-hydroxybenzenesulfonic acid

> <PUBCHEM_IUPAC_CAS_NAME>
3-hydroxybenzenesulfonic acid

> <PUBCHEM_IUPAC_NAME>
3-hydroxybenzenesulfonic acid

> <PUBCHEM_IUPAC_SYSTEMATIC_NAME>
3-oxidanylbenzenesulfonic acid

> <PUBCHEM_IUPAC_TRADITIONAL_NAME>
3-hydroxybesylic acid

> <PUBCHEM_IUPAC_INCHI>
InChI=1S/C6H6O4S/c7-5-2-1-3-6(4-5)11(8,9)10/h1-4,7H,(H,8,9,10)

> <PUBCHEM_IUPAC_INCHIKEY>
ZCLXQTGLKVQKFD-UHFFFAOYSA-N

> <PUBCHEM_XLOGP3_AA>
0.3

> <PUBCHEM_EXACT_MASS>
173.99868

> <PUBCHEM_MOLECULAR_FORMULA>
C6H6O4S

> <PUBCHEM_MOLECULAR_WEIGHT>
174.17444

> <PUBCHEM_OPENEYE_CAN_SMILES>
C1=CC(=CC(=C1)S(=O)(=O)O)O

> <PUBCHEM_OPENEYE_ISO_SMILES>
C1=CC(=CC(=C1)S(=O)(=O)O)O

> <PUBCHEM_CACTVS_TPSA>
83

> <PUBCHEM_MONOISOTOPIC_WEIGHT>
173.99868

> <PUBCHEM_TOTAL_CHARGE>
0

> <PUBCHEM_HEAVY_ATOM_COUNT>
11

> <PUBCHEM_ATOM_DEF_STEREO_COUNT>
0

> <PUBCHEM_ATOM_UDEF_STEREO_COUNT>
0

> <PUBCHEM_BOND_DEF_STEREO_COUNT>
0

> <PUBCHEM_BOND_UDEF_STEREO_COUNT>
0

> <PUBCHEM_ISOTOPIC_ATOM_COUNT>
0

> <PUBCHEM_COMPONENT_COUNT>
1

> <PUBCHEM_CACTVS_TAUTO_COUNT>
3

> <PUBCHEM_COORDINATE_TYPE>
1
5
255

> <PUBCHEM_BONDANNOTATIONS>
10  11  8
6  7  8
6  8  8
7  9  8
8  10  8
9  11  8

$$$$

