854335
  -OEChem-06241222483D

 30 31  0     1  0  0  0  0  0999 V2000
   -1.7511   -0.9329   -1.5852 S   0  0  0  0  0  0  0  0  0  0  0  0
   -5.2724    0.0755    0.2425 O   0  0  0  0  0  0  0  0  0  0  0  0
   -3.7092    1.7309    0.3529 O   0  0  0  0  0  0  0  0  0  0  0  0
    4.5532    0.2658   -0.1732 O   0  0  0  0  0  0  0  0  0  0  0  0
    3.1290   -2.0222    0.5072 O   0  0  0  0  0  0  0  0  0  0  0  0
   -1.7244   -0.0171    0.9197 N   0  0  0  0  0  0  0  0  0  0  0  0
   -1.1081    0.2743   -0.3799 C   0  0  1  0  0  0  0  0  0  0  0  0
   -3.0605   -0.5729    0.7030 C   0  0  2  0  0  0  0  0  0  0  0  0
   -2.9863   -1.5874   -0.4317 C   0  0  0  0  0  0  0  0  0  0  0  0
    0.4023    0.2684   -0.3242 C   0  0  0  0  0  0  0  0  0  0  0  0
   -4.0146    0.5494    0.4177 C   0  0  0  0  0  0  0  0  0  0  0  0
    1.0833   -0.8846    0.0699 C   0  0  0  0  0  0  0  0  0  0  0  0
    1.1191    1.4164   -0.6658 C   0  0  0  0  0  0  0  0  0  0  0  0
    2.4770   -0.8898    0.1221 C   0  0  0  0  0  0  0  0  0  0  0  0
    2.5129    1.4114   -0.6136 C   0  0  0  0  0  0  0  0  0  0  0  0
    3.1919    0.2583   -0.2197 C   0  0  0  0  0  0  0  0  0  0  0  0
    5.1576    0.6565    1.0583 C   0  0  0  0  0  0  0  0  0  0  0  0
   -1.4456    1.2597   -0.7189 H   0  0  0  0  0  0  0  0  0  0  0  0
   -3.4062   -1.0498    1.6279 H   0  0  0  0  0  0  0  0  0  0  0  0
   -2.6243   -2.5531   -0.0639 H   0  0  0  0  0  0  0  0  0  0  0  0
   -3.9349   -1.7428   -0.9523 H   0  0  0  0  0  0  0  0  0  0  0  0
   -1.1758   -0.7312    1.3989 H   0  0  0  0  0  0  0  0  0  0  0  0
    0.5440   -1.7896    0.3393 H   0  0  0  0  0  0  0  0  0  0  0  0
    0.6050    2.3227   -0.9746 H   0  0  0  0  0  0  0  0  0  0  0  0
    3.0634    2.3091   -0.8819 H   0  0  0  0  0  0  0  0  0  0  0  0
   -5.9122    0.7950    0.0551 H   0  0  0  0  0  0  0  0  0  0  0  0
    4.0868   -1.8628    0.4485 H   0  0  0  0  0  0  0  0  0  0  0  0
    4.8374    0.0008    1.8741 H   0  0  0  0  0  0  0  0  0  0  0  0
    4.9076    1.6961    1.2927 H   0  0  0  0  0  0  0  0  0  0  0  0
    6.2424    0.5740    0.9487 H   0  0  0  0  0  0  0  0  0  0  0  0
  1  7  1  0  0  0  0
  1  9  1  0  0  0  0
  2 11  1  0  0  0  0
  2 26  1  0  0  0  0
  3 11  2  0  0  0  0
  4 16  1  0  0  0  0
  4 17  1  0  0  0  0
  5 14  1  0  0  0  0
  5 27  1  0  0  0  0
  6  7  1  0  0  0  0
  6  8  1  0  0  0  0
  6 22  1  0  0  0  0
  7 10  1  0  0  0  0
  7 18  1  0  0  0  0
  8  9  1  0  0  0  0
  8 11  1  0  0  0  0
  8 19  1  0  0  0  0
  9 20  1  0  0  0  0
  9 21  1  0  0  0  0
 10 12  2  0  0  0  0
 10 13  1  0  0  0  0
 12 14  1  0  0  0  0
 12 23  1  0  0  0  0
 13 15  2  0  0  0  0
 13 24  1  0  0  0  0
 14 16  2  0  0  0  0
 15 16  1  0  0  0  0
 15 25  1  0  0  0  0
 17 28  1  0  0  0  0
 17 29  1  0  0  0  0
 17 30  1  0  0  0  0
M  END
> <PUBCHEM_COMPOUND_CID>
854335

> <PUBCHEM_CONFORMER_RMSD>
0.6

> <PUBCHEM_CONFORMER_DIVERSEORDER>
1
9
17
11
5
30
27
13
21
8
29
33
16
22
31
14
32
15
26
28
12
6
10
18
2
7
25
24
3
23
4
19
20

> <PUBCHEM_MMFF94_PARTIAL_CHARGES>
23
1 -0.46
10 -0.14
11 0.66
12 -0.15
13 -0.15
14 0.08
15 -0.15
16 0.08
17 0.28
2 -0.65
22 0.36
23 0.15
24 0.15
25 0.15
26 0.5
27 0.45
3 -0.57
4 -0.36
5 -0.53
6 -0.9
7 0.64
8 0.33
9 0.23

> <PUBCHEM_EFFECTIVE_ROTOR_COUNT>
4

> <PUBCHEM_PHARMACOPHORE_FEATURES>
9
1 2 acceptor
1 3 acceptor
1 4 acceptor
1 5 donor
1 6 cation
1 6 donor
3 2 3 11 anion
5 1 6 7 8 9 rings
6 10 12 13 14 15 16 rings

> <PUBCHEM_HEAVY_ATOM_COUNT>
17

> <PUBCHEM_ATOM_DEF_STEREO_COUNT>
2

> <PUBCHEM_ATOM_UDEF_STEREO_COUNT>
0

> <PUBCHEM_BOND_DEF_STEREO_COUNT>
0

> <PUBCHEM_BOND_UDEF_STEREO_COUNT>
0

> <PUBCHEM_ISOTOPIC_ATOM_COUNT>
0

> <PUBCHEM_COMPONENT_COUNT>
1

> <PUBCHEM_CACTVS_TAUTO_COUNT>
3

> <PUBCHEM_CONFORMER_ID>
000D093F00000001

> <PUBCHEM_MMFF94_ENERGY>
47.7167

> <PUBCHEM_FEATURE_SELFOVERLAP>
45.725

> <PUBCHEM_SHAPE_FINGERPRINT>
11089746 13 17821738229820664040
11132069 177 18333447629830321876
11401426 45 18409731737922849008
11471102 20 18273494580756349878
12107183 9 17834956751867134481
12236239 1 18259704488682995791
12251169 10 18411978053221403565
12500047 106 17749113283308332543
12633257 1 17561085769925073008
12670546 56 18336548304313387977
13140716 1 18056480548247225328
13288520 33 12751245817511137186
13675066 3 18260261932651704972
13760787 5 17774726377134609132
14252887 29 18272929457913551770
15442244 35 18268988863636424737
15527383 91 18060137626357124700
16945 1 18272374140269807886
17834072 33 18341329994625625767
1813 80 16917342666949646798
18186145 218 17203328905272101274
19050596 39 18341611473438315692
200 152 18339086990773152479
20279233 1 16774082864486874923
20281475 54 18060419097112642854
20645477 70 18341331196789681350
21267235 1 18340193142209358271
22485316 2 18410575089047898938
23402539 116 13686303448144900587
23557571 272 15140966093573363463
23559900 14 16443339871874620662
26918003 58 17917991659437956513
296302 2 17603587434656522901
300161 21 18261118473547513295
34934 24 18408606976039928040
3545911 37 18333726922773774474
4175511 318 17894627050638813253
474 4 18197216945343763084
5104073 3 18339919432770779633
542803 24 14779260912850885105
633830 44 18340199688245829252

> <PUBCHEM_SHAPE_MULTIPOLES>
325.24
9.77
1.57
1.04
0.68
0.16
0.18
-1.37
-2.64
0
0.07
-0.11
0.08
-0.66

> <PUBCHEM_SHAPE_SELFOVERLAP>
673.23

> <PUBCHEM_SHAPE_VOLUME>
188

> <PUBCHEM_COORDINATE_TYPE>
2
5
10

$$$$

