12897
  -OEChem-06261207302D

 35 36  0     0  0  0  0  0  0999 V2000
    5.4641    0.2010    0.0000 O   0  0  0  0  0  0  0  0  0  0  0  0
    2.0000    0.2010    0.0000 O   0  0  0  0  0  0  0  0  0  0  0  0
    3.7320   -2.7990    0.0000 O   0  0  0  0  0  0  0  0  0  0  0  0
    4.5981   -1.2990    0.0000 N   0  0  0  0  0  0  0  0  0  0  0  0
    2.8660   -1.2990    0.0000 N   0  0  0  0  0  0  0  0  0  0  0  0
    3.7320    0.2010    0.0000 C   0  0  0  0  0  0  0  0  0  0  0  0
    3.2320    1.0670    0.0000 C   0  0  0  0  0  0  0  0  0  0  0  0
    4.2320    1.0670    0.0000 C   0  0  0  0  0  0  0  0  0  0  0  0
    4.5981   -0.2990    0.0000 C   0  0  0  0  0  0  0  0  0  0  0  0
    2.8660   -0.2990    0.0000 C   0  0  0  0  0  0  0  0  0  0  0  0
    2.2320    1.0670    0.0000 C   0  0  0  0  0  0  0  0  0  0  0  0
    3.7320   -1.7990    0.0000 C   0  0  0  0  0  0  0  0  0  0  0  0
    5.2320    1.0670    0.0000 C   0  0  0  0  0  0  0  0  0  0  0  0
    3.7320    1.9330    0.0000 C   0  0  0  0  0  0  0  0  0  0  0  0
    5.4641   -1.7990    0.0000 C   0  0  0  0  0  0  0  0  0  0  0  0
    2.0000   -1.7990    0.0000 C   0  0  0  0  0  0  0  0  0  0  0  0
    5.7320    1.9330    0.0000 C   0  0  0  0  0  0  0  0  0  0  0  0
    4.2320    2.7990    0.0000 C   0  0  0  0  0  0  0  0  0  0  0  0
    5.2320    2.7990    0.0000 C   0  0  0  0  0  0  0  0  0  0  0  0
    3.8147    1.2790    0.0000 H   0  0  0  0  0  0  0  0  0  0  0  0
    3.1244    1.6776    0.0000 H   0  0  0  0  0  0  0  0  0  0  0  0
    2.2320    1.6870    0.0000 H   0  0  0  0  0  0  0  0  0  0  0  0
    1.6120    1.0670    0.0000 H   0  0  0  0  0  0  0  0  0  0  0  0
    2.2320    0.4470    0.0000 H   0  0  0  0  0  0  0  0  0  0  0  0
    5.5420    0.5301    0.0000 H   0  0  0  0  0  0  0  0  0  0  0  0
    3.1120    1.9330    0.0000 H   0  0  0  0  0  0  0  0  0  0  0  0
    1.6900   -1.2621    0.0000 H   0  0  0  0  0  0  0  0  0  0  0  0
    1.4631   -2.1090    0.0000 H   0  0  0  0  0  0  0  0  0  0  0  0
    2.3100   -2.3360    0.0000 H   0  0  0  0  0  0  0  0  0  0  0  0
    5.1541   -2.3360    0.0000 H   0  0  0  0  0  0  0  0  0  0  0  0
    6.0010   -2.1090    0.0000 H   0  0  0  0  0  0  0  0  0  0  0  0
    5.7741   -1.2621    0.0000 H   0  0  0  0  0  0  0  0  0  0  0  0
    6.3520    1.9330    0.0000 H   0  0  0  0  0  0  0  0  0  0  0  0
    3.9220    3.3360    0.0000 H   0  0  0  0  0  0  0  0  0  0  0  0
    5.5420    3.3360    0.0000 H   0  0  0  0  0  0  0  0  0  0  0  0
  1  9  2  0  0  0  0
  2 10  2  0  0  0  0
  3 12  2  0  0  0  0
  4  9  1  0  0  0  0
  4 12  1  0  0  0  0
  4 15  1  0  0  0  0
  5 10  1  0  0  0  0
  5 12  1  0  0  0  0
  5 16  1  0  0  0  0
  6  7  1  0  0  0  0
  6  8  1  0  0  0  0
  6  9  1  0  0  0  0
  6 10  1  0  0  0  0
  7 11  1  0  0  0  0
  7 20  1  0  0  0  0
  7 21  1  0  0  0  0
  8 13  2  0  0  0  0
  8 14  1  0  0  0  0
 11 22  1  0  0  0  0
 11 23  1  0  0  0  0
 11 24  1  0  0  0  0
 13 17  1  0  0  0  0
 13 25  1  0  0  0  0
 14 18  2  0  0  0  0
 14 26  1  0  0  0  0
 15 30  1  0  0  0  0
 15 31  1  0  0  0  0
 15 32  1  0  0  0  0
 16 27  1  0  0  0  0
 16 28  1  0  0  0  0
 16 29  1  0  0  0  0
 17 19  2  0  0  0  0
 17 33  1  0  0  0  0
 18 19  1  0  0  0  0
 18 34  1  0  0  0  0
 19 35  1  0  0  0  0
M  END
> <PUBCHEM_COMPOUND_CID>
12897

> <PUBCHEM_COMPOUND_CANONICALIZED>
1

> <PUBCHEM_CACTVS_COMPLEXITY>
389

> <PUBCHEM_CACTVS_HBOND_ACCEPTOR>
3

> <PUBCHEM_CACTVS_HBOND_DONOR>
0

> <PUBCHEM_CACTVS_ROTATABLE_BOND>
2

> <PUBCHEM_CACTVS_SUBSKEYS>
AAADceBzMAAAAAAAAAAAAAAAAAAAAAAAAAA8QAAAAAAAAAABAAAAHgAAAAAADgCBmAQzAIMAAACIAiFSEAACAAAgAAAIiAEIAIiIIDqI1RGEIAAohyIIiAcYiMCPgAAAAAAAAAAAAAAAAAAAAAAAAAAAAA==

> <PUBCHEM_IUPAC_OPENEYE_NAME>
5-ethyl-1,3-dimethyl-5-phenyl-hexahydropyrimidine-2,4,6-trione

> <PUBCHEM_IUPAC_CAS_NAME>
5-ethyl-1,3-dimethyl-5-phenyl-1,3-diazinane-2,4,6-trione

> <PUBCHEM_IUPAC_NAME>
5-ethyl-1,3-dimethyl-5-phenyl-1,3-diazinane-2,4,6-trione

> <PUBCHEM_IUPAC_SYSTEMATIC_NAME>
5-ethyl-1,3-dimethyl-5-phenyl-1,3-diazinane-2,4,6-trione

> <PUBCHEM_IUPAC_TRADITIONAL_NAME>
5-ethyl-1,3-dimethyl-5-phenyl-barbituric acid

> <PUBCHEM_IUPAC_INCHI>
InChI=1S/C14H16N2O3/c1-4-14(10-8-6-5-7-9-10)11(17)15(2)13(19)16(3)12(14)18/h5-9H,4H2,1-3H3

> <PUBCHEM_IUPAC_INCHIKEY>
RPJARFKGODFVHL-UHFFFAOYSA-N

> <PUBCHEM_XLOGP3>
2

> <PUBCHEM_EXACT_MASS>
260.116092

> <PUBCHEM_MOLECULAR_FORMULA>
C14H16N2O3

> <PUBCHEM_MOLECULAR_WEIGHT>
260.28844

> <PUBCHEM_OPENEYE_CAN_SMILES>
CCC1(C(=O)N(C(=O)N(C1=O)C)C)C2=CC=CC=C2

> <PUBCHEM_OPENEYE_ISO_SMILES>
CCC1(C(=O)N(C(=O)N(C1=O)C)C)C2=CC=CC=C2

> <PUBCHEM_CACTVS_TPSA>
57.7

> <PUBCHEM_MONOISOTOPIC_WEIGHT>
260.116092

> <PUBCHEM_TOTAL_CHARGE>
0

> <PUBCHEM_HEAVY_ATOM_COUNT>
19

> <PUBCHEM_ATOM_DEF_STEREO_COUNT>
0

> <PUBCHEM_ATOM_UDEF_STEREO_COUNT>
0

> <PUBCHEM_BOND_DEF_STEREO_COUNT>
0

> <PUBCHEM_BOND_UDEF_STEREO_COUNT>
0

> <PUBCHEM_ISOTOPIC_ATOM_COUNT>
0

> <PUBCHEM_COMPONENT_COUNT>
1

> <PUBCHEM_CACTVS_TAUTO_COUNT>
1

> <PUBCHEM_COORDINATE_TYPE>
1
5
255

> <PUBCHEM_BONDANNOTATIONS>
13  17  8
14  18  8
17  19  8
18  19  8
8  13  8
8  14  8

$$$$

