586335
  -OEChem-06241222462D

 71 76  0     1  0  0  0  0  0999 V2000
    5.5954   -2.2515    0.0000 O   0  0  0  0  0  0  0  0  0  0  0  0
    3.9300   -1.1704    0.0000 O   0  0  0  0  0  0  0  0  0  0  0  0
    6.6628   -0.0167    0.0000 C   0  0  3  0  0  0  0  0  0  0  0  0
    7.5288   -0.5167    0.0000 C   0  0  3  0  0  0  0  0  0  0  0  0
    8.3948   -0.0167    0.0000 C   0  0  3  0  0  0  0  0  0  0  0  0
    5.9258   -0.6838    0.0000 C   0  0  3  0  0  0  0  0  0  0  0  0
    8.3948    0.9833    0.0000 C   0  0  3  0  0  0  0  0  0  0  0  0
    9.2888    1.5180    0.0000 C   0  0  3  0  0  0  0  0  0  0  0  0
    6.3309   -1.5916    0.0000 C   0  0  3  0  0  0  0  0  0  0  0  0
    7.3196   -1.4885    0.0000 C   0  0  0  0  0  0  0  0  0  0  0  0
    6.6628    0.9833    0.0000 C   0  0  0  0  0  0  0  0  0  0  0  0
    7.5288    1.4833    0.0000 C   0  0  0  0  0  0  0  0  0  0  0  0
   10.1949    1.0041    0.0000 C   0  0  3  0  0  0  0  0  0  0  0  0
    4.9434   -0.7905    0.0000 C   0  0  3  0  0  0  0  0  0  0  0  0
    9.2888   -0.5514    0.0000 C   0  0  0  0  0  0  0  0  0  0  0  0
   10.1949   -0.0375    0.0000 C   0  0  0  0  0  0  0  0  0  0  0  0
    5.7968    0.4833    0.0000 C   0  0  0  0  0  0  0  0  0  0  0  0
    4.7396   -1.7574    0.0000 C   0  0  3  0  0  0  0  0  0  0  0  0
    9.2637    2.6027    0.0000 C   0  0  0  0  0  0  0  0  0  0  0  0
   11.1386    1.5394    0.0000 C   0  0  0  0  0  0  0  0  0  0  0  0
    8.4189    2.0113    0.0000 C   0  0  0  0  0  0  0  0  0  0  0  0
   10.1949    3.1596    0.0000 C   0  0  0  0  0  0  0  0  0  0  0  0
    4.2723   -0.0491    0.0000 C   0  0  0  0  0  0  0  0  0  0  0  0
   11.1386    2.6243    0.0000 C   0  0  0  0  0  0  0  0  0  0  0  0
    4.6359   -2.7520    0.0000 C   0  0  0  0  0  0  0  0  0  0  0  0
    3.0169   -1.5779    0.0000 C   0  0  0  0  0  0  0  0  0  0  0  0
    3.7227   -3.1596    0.0000 C   0  0  0  0  0  0  0  0  0  0  0  0
    2.9132   -2.5725    0.0000 C   0  0  3  0  0  0  0  0  0  0  0  0
    2.0000   -2.9800    0.0000 C   0  0  0  0  0  0  0  0  0  0  0  0
    8.0299   -0.8818    0.0000 H   0  0  0  0  0  0  0  0  0  0  0  0
    8.3901   -0.6367    0.0000 H   0  0  0  0  0  0  0  0  0  0  0  0
    5.6719   -0.1182    0.0000 H   0  0  0  0  0  0  0  0  0  0  0  0
    8.3901    1.6033    0.0000 H   0  0  0  0  0  0  0  0  0  0  0  0
    6.5823   -2.1583    0.0000 H   0  0  0  0  0  0  0  0  0  0  0  0
    7.3187   -2.1085    0.0000 H   0  0  0  0  0  0  0  0  0  0  0  0
    7.9361   -1.5546    0.0000 H   0  0  0  0  0  0  0  0  0  0  0  0
    6.4507    1.5659    0.0000 H   0  0  0  0  0  0  0  0  0  0  0  0
    6.0522    0.8756    0.0000 H   0  0  0  0  0  0  0  0  0  0  0  0
    7.9274    1.9582    0.0000 H   0  0  0  0  0  0  0  0  0  0  0  0
    7.1303    1.9582    0.0000 H   0  0  0  0  0  0  0  0  0  0  0  0
   10.7306    0.6920    0.0000 H   0  0  0  0  0  0  0  0  0  0  0  0
    4.3448   -0.9522    0.0000 H   0  0  0  0  0  0  0  0  0  0  0  0
    8.8842   -1.0212    0.0000 H   0  0  0  0  0  0  0  0  0  0  0  0
    9.6824   -1.0304    0.0000 H   0  0  0  0  0  0  0  0  0  0  0  0
   10.4039   -0.6212    0.0000 H   0  0  0  0  0  0  0  0  0  0  0  0
   10.8057    0.0686    0.0000 H   0  0  0  0  0  0  0  0  0  0  0  0
    6.1068    1.0202    0.0000 H   0  0  0  0  0  0  0  0  0  0  0  0
    5.2598    0.7933    0.0000 H   0  0  0  0  0  0  0  0  0  0  0  0
    5.4868   -0.0536    0.0000 H   0  0  0  0  0  0  0  0  0  0  0  0
    9.0412    3.1814    0.0000 H   0  0  0  0  0  0  0  0  0  0  0  0
    8.6555    2.4825    0.0000 H   0  0  0  0  0  0  0  0  0  0  0  0
   11.3477    0.9557    0.0000 H   0  0  0  0  0  0  0  0  0  0  0  0
   11.7495    1.6454    0.0000 H   0  0  0  0  0  0  0  0  0  0  0  0
    8.7248    2.5506    0.0000 H   0  0  0  0  0  0  0  0  0  0  0  0
    7.8796    2.3171    0.0000 H   0  0  0  0  0  0  0  0  0  0  0  0
    8.1131    1.4720    0.0000 H   0  0  0  0  0  0  0  0  0  0  0  0
   10.5885    3.6386    0.0000 H   0  0  0  0  0  0  0  0  0  0  0  0
    9.7903    3.6294    0.0000 H   0  0  0  0  0  0  0  0  0  0  0  0
    4.7320    0.3670    0.0000 H   0  0  0  0  0  0  0  0  0  0  0  0
    3.8562    0.4106    0.0000 H   0  0  0  0  0  0  0  0  0  0  0  0
    3.8126   -0.4651    0.0000 H   0  0  0  0  0  0  0  0  0  0  0  0
   11.7495    2.5182    0.0000 H   0  0  0  0  0  0  0  0  0  0  0  0
   11.3477    3.2080    0.0000 H   0  0  0  0  0  0  0  0  0  0  0  0
    5.1378   -3.1160    0.0000 H   0  0  0  0  0  0  0  0  0  0  0  0
    2.8664   -0.9764    0.0000 H   0  0  0  0  0  0  0  0  0  0  0  0
    2.3984   -1.6217    0.0000 H   0  0  0  0  0  0  0  0  0  0  0  0
    3.6584   -3.7762    0.0000 H   0  0  0  0  0  0  0  0  0  0  0  0
    2.4113   -2.2085    0.0000 H   0  0  0  0  0  0  0  0  0  0  0  0
    1.7473   -2.4138    0.0000 H   0  0  0  0  0  0  0  0  0  0  0  0
    1.4338   -3.2327    0.0000 H   0  0  0  0  0  0  0  0  0  0  0  0
    2.2527   -3.5462    0.0000 H   0  0  0  0  0  0  0  0  0  0  0  0
  1  9  1  0  0  0  0
  1 18  1  0  0  0  0
  2 18  1  0  0  0  0
  2 26  1  0  0  0  0
  3  4  1  0  0  0  0
  3  6  1  0  0  0  0
  3 11  1  0  0  0  0
  3 17  1  0  0  0  0
  4  5  1  0  0  0  0
  4 10  1  0  0  0  0
  4 30  1  0  0  0  0
  5  7  1  0  0  0  0
  5 15  1  0  0  0  0
  5 31  1  0  0  0  0
  6  9  1  0  0  0  0
  6 14  1  0  0  0  0
  6 32  1  0  0  0  0
  7  8  1  0  0  0  0
  7 12  1  0  0  0  0
  7 33  1  0  0  0  0
  8 13  1  0  0  0  0
  8 19  1  0  0  0  0
  8 21  1  0  0  0  0
  9 10  1  0  0  0  0
  9 34  1  0  0  0  0
 10 35  1  0  0  0  0
 10 36  1  0  0  0  0
 11 12  1  0  0  0  0
 11 37  1  0  0  0  0
 11 38  1  0  0  0  0
 12 39  1  0  0  0  0
 12 40  1  0  0  0  0
 13 16  1  0  0  0  0
 13 20  1  0  0  0  0
 13 41  1  0  0  0  0
 14 18  1  0  0  0  0
 14 23  1  0  0  0  0
 14 42  1  0  0  0  0
 15 16  1  0  0  0  0
 15 43  1  0  0  0  0
 15 44  1  0  0  0  0
 16 45  1  0  0  0  0
 16 46  1  0  0  0  0
 17 47  1  0  0  0  0
 17 48  1  0  0  0  0
 17 49  1  0  0  0  0
 18 25  1  0  0  0  0
 19 22  1  0  0  0  0
 19 50  1  0  0  0  0
 19 51  1  0  0  0  0
 20 24  1  0  0  0  0
 20 52  1  0  0  0  0
 20 53  1  0  0  0  0
 21 54  1  0  0  0  0
 21 55  1  0  0  0  0
 21 56  1  0  0  0  0
 22 24  1  0  0  0  0
 22 57  1  0  0  0  0
 22 58  1  0  0  0  0
 23 59  1  0  0  0  0
 23 60  1  0  0  0  0
 23 61  1  0  0  0  0
 24 62  1  0  0  0  0
 24 63  1  0  0  0  0
 25 27  2  0  0  0  0
 25 64  1  0  0  0  0
 26 28  1  0  0  0  0
 26 65  1  0  0  0  0
 26 66  1  0  0  0  0
 27 28  1  0  0  0  0
 27 67  1  0  0  0  0
 28 29  1  0  0  0  0
 28 68  1  0  0  0  0
 29 69  1  0  0  0  0
 29 70  1  0  0  0  0
 29 71  1  0  0  0  0
M  END
> <PUBCHEM_COMPOUND_CID>
586335

> <PUBCHEM_COMPOUND_CANONICALIZED>
1

> <PUBCHEM_CACTVS_COMPLEXITY>
701

> <PUBCHEM_CACTVS_HBOND_ACCEPTOR>
2

> <PUBCHEM_CACTVS_HBOND_DONOR>
0

> <PUBCHEM_CACTVS_ROTATABLE_BOND>
0

> <PUBCHEM_CACTVS_SUBSKEYS>
AAADcfB4MAAAAAAAAAAAAAAAAAAAAaIAAAAwYMEAAAASAGDAAAAAGgAAAAAADxSggAICCAAABACAACBCAAAAAAAgAAAICAAAAAgQBAIAIQAiEAAEwAAMIAPAwPAPgAAAAAAAAACAAAQAACAAAYAADAAAAA==

> <PUBCHEM_IUPAC_INCHI>
InChI=1S/C27H42O2/c1-17-10-14-27(28-16-17)18(2)24-23(29-27)15-22-20-9-8-19-7-5-6-12-25(19,3)21(20)11-13-26(22,24)4/h10,14,17-24H,5-9,11-13,15-16H2,1-4H3

> <PUBCHEM_IUPAC_INCHIKEY>
PARRMYWRNNNBCX-UHFFFAOYSA-N

> <PUBCHEM_XLOGP3_AA>
7.9

> <PUBCHEM_EXACT_MASS>
398.318481

> <PUBCHEM_MOLECULAR_FORMULA>
C27H42O2

> <PUBCHEM_MOLECULAR_WEIGHT>
398.62118

> <PUBCHEM_OPENEYE_CAN_SMILES>
CC1COC2(C=C1)C(C3C(O2)CC4C3(CCC5C4CCC6C5(CCCC6)C)C)C

> <PUBCHEM_OPENEYE_ISO_SMILES>
CC1COC2(C=C1)C(C3C(O2)CC4C3(CCC5C4CCC6C5(CCCC6)C)C)C

> <PUBCHEM_CACTVS_TPSA>
18.5

> <PUBCHEM_MONOISOTOPIC_WEIGHT>
398.318481

> <PUBCHEM_TOTAL_CHARGE>
0

> <PUBCHEM_HEAVY_ATOM_COUNT>
29

> <PUBCHEM_ATOM_DEF_STEREO_COUNT>
0

> <PUBCHEM_ATOM_UDEF_STEREO_COUNT>
11

> <PUBCHEM_BOND_DEF_STEREO_COUNT>
0

> <PUBCHEM_BOND_UDEF_STEREO_COUNT>
0

> <PUBCHEM_ISOTOPIC_ATOM_COUNT>
0

> <PUBCHEM_COMPONENT_COUNT>
1

> <PUBCHEM_CACTVS_TAUTO_COUNT>
1

> <PUBCHEM_COORDINATE_TYPE>
1
5
255

> <PUBCHEM_BONDANNOTATIONS>
13  20  3
14  23  3
18  25  3
28  29  3
3  17  3
4  10  3
5  15  3
6  14  3
7  12  3
8  21  3
9  10  3

$$$$

