17396373
  -OEChem-06241222562D

 37 38  0     0  0  0  0  0  0999 V2000
    2.0000   -2.2500    0.0000 F   0  0  0  0  0  0  0  0  0  0  0  0
    2.3660   -0.8840    0.0000 F   0  0  0  0  0  0  0  0  0  0  0  0
    3.3660   -2.6160    0.0000 F   0  0  0  0  0  0  0  0  0  0  0  0
    8.0622    0.2500    0.0000 O   0  0  0  0  0  0  0  0  0  0  0  0
    3.7320   -1.2500    0.0000 O   0  0  0  0  0  0  0  0  0  0  0  0
    7.1962   -0.2500    0.0000 O   0  0  0  0  0  0  0  0  0  0  0  0
    5.4641   -0.2500    0.0000 N   0  0  0  0  0  0  0  0  0  0  0  0
    6.3301    1.2500    0.0000 C   0  0  0  0  0  0  0  0  0  0  0  0
    7.1962    1.7500    0.0000 C   0  0  0  0  0  0  0  0  0  0  0  0
    6.3301    0.2500    0.0000 C   0  0  0  0  0  0  0  0  0  0  0  0
    8.0622    1.2500    0.0000 C   0  0  0  0  0  0  0  0  0  0  0  0
    5.4641   -1.2500    0.0000 C   0  0  0  0  0  0  0  0  0  0  0  0
    7.1962    2.7500    0.0000 C   0  0  0  0  0  0  0  0  0  0  0  0
    4.5981   -1.7500    0.0000 C   0  0  0  0  0  0  0  0  0  0  0  0
    8.9282    1.7500    0.0000 C   0  0  0  0  0  0  0  0  0  0  0  0
    6.3301   -1.7500    0.0000 C   0  0  0  0  0  0  0  0  0  0  0  0
    8.0622    3.2500    0.0000 C   0  0  0  0  0  0  0  0  0  0  0  0
    8.9282    2.7500    0.0000 C   0  0  0  0  0  0  0  0  0  0  0  0
    4.5981   -2.7500    0.0000 C   0  0  0  0  0  0  0  0  0  0  0  0
    6.3301   -2.7500    0.0000 C   0  0  0  0  0  0  0  0  0  0  0  0
    5.4641   -3.2500    0.0000 C   0  0  0  0  0  0  0  0  0  0  0  0
    8.9282   -0.2500    0.0000 C   0  0  0  0  0  0  0  0  0  0  0  0
    2.8660   -1.7500    0.0000 C   0  0  0  0  0  0  0  0  0  0  0  0
    6.1181    1.8326    0.0000 H   0  0  0  0  0  0  0  0  0  0  0  0
    5.7196    1.1423    0.0000 H   0  0  0  0  0  0  0  0  0  0  0  0
    4.9272    0.0600    0.0000 H   0  0  0  0  0  0  0  0  0  0  0  0
    6.6592    3.0600    0.0000 H   0  0  0  0  0  0  0  0  0  0  0  0
    9.4651    1.4400    0.0000 H   0  0  0  0  0  0  0  0  0  0  0  0
    6.8671   -1.4400    0.0000 H   0  0  0  0  0  0  0  0  0  0  0  0
    8.0622    3.8700    0.0000 H   0  0  0  0  0  0  0  0  0  0  0  0
    9.4651    3.0600    0.0000 H   0  0  0  0  0  0  0  0  0  0  0  0
    4.0611   -3.0600    0.0000 H   0  0  0  0  0  0  0  0  0  0  0  0
    6.8671   -3.0600    0.0000 H   0  0  0  0  0  0  0  0  0  0  0  0
    5.4641   -3.8700    0.0000 H   0  0  0  0  0  0  0  0  0  0  0  0
    8.6182   -0.7869    0.0000 H   0  0  0  0  0  0  0  0  0  0  0  0
    9.4651   -0.5600    0.0000 H   0  0  0  0  0  0  0  0  0  0  0  0
    9.2382    0.2869    0.0000 H   0  0  0  0  0  0  0  0  0  0  0  0
  1 23  1  0  0  0  0
  2 23  1  0  0  0  0
  3 23  1  0  0  0  0
  4 11  1  0  0  0  0
  4 22  1  0  0  0  0
  5 14  1  0  0  0  0
  5 23  1  0  0  0  0
  6 10  2  0  0  0  0
  7 10  1  0  0  0  0
  7 12  1  0  0  0  0
  7 26  1  0  0  0  0
  8  9  1  0  0  0  0
  8 10  1  0  0  0  0
  8 24  1  0  0  0  0
  8 25  1  0  0  0  0
  9 11  1  0  0  0  0
  9 13  2  0  0  0  0
 11 15  2  0  0  0  0
 12 14  1  0  0  0  0
 12 16  2  0  0  0  0
 13 17  1  0  0  0  0
 13 27  1  0  0  0  0
 14 19  2  0  0  0  0
 15 18  1  0  0  0  0
 15 28  1  0  0  0  0
 16 20  1  0  0  0  0
 16 29  1  0  0  0  0
 17 18  2  0  0  0  0
 17 30  1  0  0  0  0
 18 31  1  0  0  0  0
 19 21  1  0  0  0  0
 19 32  1  0  0  0  0
 20 21  2  0  0  0  0
 20 33  1  0  0  0  0
 21 34  1  0  0  0  0
 22 35  1  0  0  0  0
 22 36  1  0  0  0  0
 22 37  1  0  0  0  0
M  END
> <PUBCHEM_COMPOUND_CID>
17396373

> <PUBCHEM_COMPOUND_CANONICALIZED>
1

> <PUBCHEM_CACTVS_COMPLEXITY>
389

> <PUBCHEM_CACTVS_HBOND_ACCEPTOR>
6

> <PUBCHEM_CACTVS_HBOND_DONOR>
1

> <PUBCHEM_CACTVS_ROTATABLE_BOND>
5

> <PUBCHEM_CACTVS_SUBSKEYS>
AAADccB6MYAAAAAAAAAAAAAAAAAAAAAAAAAwYAAAAAAAAAABQAAAHwAQAAAADAyBmBIyxoLABACIAiVSUACCCAAhIgAIiAEHbIgOJjLEtZuFMChk1BHY6Ae6yKCOAAAAAAAIEAAAAAAAABAgAAAAAAAAAA==

> <PUBCHEM_IUPAC_OPENEYE_NAME>
2-(2-methoxyphenyl)-N-[2-(trifluoromethoxy)phenyl]acetamide

> <PUBCHEM_IUPAC_CAS_NAME>
2-(2-methoxyphenyl)-N-[2-(trifluoromethoxy)phenyl]acetamide

> <PUBCHEM_IUPAC_NAME>
2-(2-methoxyphenyl)-N-[2-(trifluoromethoxy)phenyl]acetamide

> <PUBCHEM_IUPAC_SYSTEMATIC_NAME>
2-(2-methoxyphenyl)-N-[2-(trifluoromethyloxy)phenyl]ethanamide

> <PUBCHEM_IUPAC_TRADITIONAL_NAME>
2-(2-methoxyphenyl)-N-[2-(trifluoromethoxy)phenyl]acetamide

> <PUBCHEM_IUPAC_INCHI>
InChI=1S/C16H14F3NO3/c1-22-13-8-4-2-6-11(13)10-15(21)20-12-7-3-5-9-14(12)23-16(17,18)19/h2-9H,10H2,1H3,(H,20,21)

> <PUBCHEM_IUPAC_INCHIKEY>
QTALCKHOYDHNNX-UHFFFAOYSA-N

> <PUBCHEM_XLOGP3_AA>
3.8

> <PUBCHEM_EXACT_MASS>
325.092578

> <PUBCHEM_MOLECULAR_FORMULA>
C16H14F3NO3

> <PUBCHEM_MOLECULAR_WEIGHT>
325.28247

> <PUBCHEM_OPENEYE_CAN_SMILES>
COC1=CC=CC=C1CC(=O)NC2=CC=CC=C2OC(F)(F)F

> <PUBCHEM_OPENEYE_ISO_SMILES>
COC1=CC=CC=C1CC(=O)NC2=CC=CC=C2OC(F)(F)F

> <PUBCHEM_CACTVS_TPSA>
47.6

> <PUBCHEM_MONOISOTOPIC_WEIGHT>
325.092578

> <PUBCHEM_TOTAL_CHARGE>
0

> <PUBCHEM_HEAVY_ATOM_COUNT>
23

> <PUBCHEM_ATOM_DEF_STEREO_COUNT>
0

> <PUBCHEM_ATOM_UDEF_STEREO_COUNT>
0

> <PUBCHEM_BOND_DEF_STEREO_COUNT>
0

> <PUBCHEM_BOND_UDEF_STEREO_COUNT>
0

> <PUBCHEM_ISOTOPIC_ATOM_COUNT>
0

> <PUBCHEM_COMPONENT_COUNT>
1

> <PUBCHEM_CACTVS_TAUTO_COUNT>
3

> <PUBCHEM_COORDINATE_TYPE>
1
5
255

> <PUBCHEM_BONDANNOTATIONS>
11  15  8
12  14  8
12  16  8
13  17  8
14  19  8
15  18  8
16  20  8
17  18  8
19  21  8
20  21  8
9  11  8
9  13  8

$$$$

