12890
  -OEChem-06261207303D

 29 30  0     0  0  0  0  0  0999 V2000
   -0.5821    2.5613    1.6312 Br  0  0  0  0  0  0  0  0  0  0  0  0
   -0.8425    1.3052   -1.6054 O   0  0  0  0  0  0  0  0  0  0  0  0
    1.8280    2.3996   -0.2464 O   0  0  0  0  0  0  0  0  0  0  0  0
    0.0292    1.0067    0.6092 C   0  0  0  0  0  0  0  0  0  0  0  0
   -1.0387    0.8098   -0.4760 C   0  0  0  0  0  0  0  0  0  0  0  0
    1.4340    1.2873    0.0952 C   0  0  0  0  0  0  0  0  0  0  0  0
   -2.2509    0.0533   -0.2065 C   0  0  0  0  0  0  0  0  0  0  0  0
    2.3962    0.1503    0.0177 C   0  0  0  0  0  0  0  0  0  0  0  0
   -2.2319   -0.9868    0.7229 C   0  0  0  0  0  0  0  0  0  0  0  0
    1.9051   -1.1158   -0.2088 C   0  0  0  0  0  0  0  0  0  0  0  0
   -3.4331    0.3679   -0.8769 C   0  0  0  0  0  0  0  0  0  0  0  0
    3.7390    0.4098    0.1749 C   0  0  0  0  0  0  0  0  0  0  0  0
   -3.3947   -1.7124    0.9816 C   0  0  0  0  0  0  0  0  0  0  0  0
    2.8048   -2.1791   -0.2816 C   0  0  0  0  0  0  0  0  0  0  0  0
   -4.5960   -0.3577   -0.6179 C   0  0  0  0  0  0  0  0  0  0  0  0
    4.6387   -0.6536    0.1019 C   0  0  0  0  0  0  0  0  0  0  0  0
   -4.5767   -1.3978    0.3114 C   0  0  0  0  0  0  0  0  0  0  0  0
    4.1715   -1.9481   -0.1264 C   0  0  0  0  0  0  0  0  0  0  0  0
    0.0662    0.2080    1.3487 H   0  0  0  0  0  0  0  0  0  0  0  0
   -1.3304   -1.2863    1.2457 H   0  0  0  0  0  0  0  0  0  0  0  0
    0.8510   -1.3242   -0.3519 H   0  0  0  0  0  0  0  0  0  0  0  0
   -3.4690    1.1779   -1.6008 H   0  0  0  0  0  0  0  0  0  0  0  0
    4.1172    1.4107    0.3591 H   0  0  0  0  0  0  0  0  0  0  0  0
   -3.3787   -2.5268    1.7001 H   0  0  0  0  0  0  0  0  0  0  0  0
    2.4419   -3.1865   -0.4636 H   0  0  0  0  0  0  0  0  0  0  0  0
   -5.5167   -0.1124   -1.1391 H   0  0  0  0  0  0  0  0  0  0  0  0
    5.7029   -0.4743    0.2241 H   0  0  0  0  0  0  0  0  0  0  0  0
   -5.4817   -1.9636    0.5119 H   0  0  0  0  0  0  0  0  0  0  0  0
    4.8722   -2.7759   -0.1839 H   0  0  0  0  0  0  0  0  0  0  0  0
  1  4  1  0  0  0  0
  2  5  2  0  0  0  0
  3  6  2  0  0  0  0
  4  5  1  0  0  0  0
  4  6  1  0  0  0  0
  4 19  1  0  0  0  0
  5  7  1  0  0  0  0
  6  8  1  0  0  0  0
  7  9  2  0  0  0  0
  7 11  1  0  0  0  0
  8 10  2  0  0  0  0
  8 12  1  0  0  0  0
  9 13  1  0  0  0  0
  9 20  1  0  0  0  0
 10 14  1  0  0  0  0
 10 21  1  0  0  0  0
 11 15  2  0  0  0  0
 11 22  1  0  0  0  0
 12 16  2  0  0  0  0
 12 23  1  0  0  0  0
 13 17  2  0  0  0  0
 13 24  1  0  0  0  0
 14 18  2  0  0  0  0
 14 25  1  0  0  0  0
 15 17  1  0  0  0  0
 15 26  1  0  0  0  0
 16 18  1  0  0  0  0
 16 27  1  0  0  0  0
 17 28  1  0  0  0  0
 18 29  1  0  0  0  0
M  END
> <PUBCHEM_COMPOUND_CID>
12890

> <PUBCHEM_CONFORMER_RMSD>
0.6

> <PUBCHEM_CONFORMER_DIVERSEORDER>
1
50
48
60
38
102
45
30
77
74
35
23
106
104
59
39
105
31
68
72
70
94
21
92
93
2
88
65
52
49
95
58
107
71
40
28
15
97
42
47
67
108
25
83
82
61
79
87
98
16
56
78
17
26
99
64
34
100
96
9
66
4
84
81
13
27
75
43
20
69
12
44
46
63
3
90
89
41
6
76
85
73
18
29
19
8
54
62
103
53
57
37
32
33
11
80
86
10
55
101
7
5
51
22
14
91
24
36

> <PUBCHEM_MMFF94_PARTIAL_CHARGES>
28
1 -0.23
10 -0.15
11 -0.15
12 -0.15
13 -0.15
14 -0.15
15 -0.15
16 -0.15
17 -0.15
18 -0.15
2 -0.57
20 0.15
21 0.15
22 0.15
23 0.15
24 0.15
25 0.15
26 0.15
27 0.15
28 0.15
29 0.15
3 -0.57
4 0.35
5 0.42
6 0.42
7 0.09
8 0.09
9 -0.15

> <PUBCHEM_EFFECTIVE_ROTOR_COUNT>
4

> <PUBCHEM_PHARMACOPHORE_FEATURES>
6
1 1 hydrophobe
1 2 acceptor
1 3 acceptor
1 4 anion
6 7 9 11 13 15 17 rings
6 8 10 12 14 16 18 rings

> <PUBCHEM_HEAVY_ATOM_COUNT>
18

> <PUBCHEM_ATOM_DEF_STEREO_COUNT>
0

> <PUBCHEM_ATOM_UDEF_STEREO_COUNT>
0

> <PUBCHEM_BOND_DEF_STEREO_COUNT>
0

> <PUBCHEM_BOND_UDEF_STEREO_COUNT>
0

> <PUBCHEM_ISOTOPIC_ATOM_COUNT>
0

> <PUBCHEM_COMPONENT_COUNT>
1

> <PUBCHEM_CACTVS_TAUTO_COUNT>
2

> <PUBCHEM_CONFORMER_ID>
0000325A00000001

> <PUBCHEM_MMFF94_ENERGY>
55.5101

> <PUBCHEM_FEATURE_SELFOVERLAP>
30.446

> <PUBCHEM_SHAPE_FINGERPRINT>
10465860 71 16845571994075759063
10618630 7 18334575763088483826
12363563 72 18337381725336983878
12506688 2 18409164381200976962
12553582 1 18040158405079714318
12596602 18 16371012853874154291
12670546 177 17561075891595237990
12824470 246 18340769355100735944
13103583 49 17604415341607028819
13134695 92 17968665908764387233
13149001 5 14763764331439343573
13533116 47 18190459351754518571
13544592 145 18202007629353876815
13544653 18 18407758144478514635
14178342 30 18119531179195461672
14251757 17 18201164325188767091
14252887 29 17676201390584882222
14386348 63 18342458140336400227
14866123 147 17759519263417404371
15196674 1 18412262852302698358
15352361 1 18411701014825031930
15375462 189 18041002812719174556
15422964 175 18335422417338783670
15635459 17 18412261748491107906
17834074 16 18342459222873750691
19141452 34 18411978032237703523
193927 3 18114735049272097198
19862831 5 14620795998283554181
200 152 18261396662737072970
20261772 1 17967537865462992990
20281475 54 18341886411527685852
20374829 77 18131638884896891251
20645477 70 18342181003402979723
20671657 53 18342171176386158724
20871999 31 17989206000918856540
21033650 10 16127247999718375332
21250096 35 18261114071227257483
21267235 1 18335695070632432110
221490 88 18271519789153543410
2215653 11 18341622520769558119
23175994 123 18261111872494236689
23526113 38 18200031721033193609
23557571 272 17632024078079402309
23559900 14 18341621360680326085
26918003 58 18410860979245643706
2871803 45 18272653484584524074
3004659 81 18131070463397818842
3060560 45 11599741574787144480
4921388 177 16343409644866188955
5104073 3 18043537320909328026
83771 10 18334859428451146640
9709674 26 18129379298471100275

> <PUBCHEM_SHAPE_MULTIPOLES>
364.64
9.2
2.52
1.1
0.41
0.8
-0.04
-6.03
0.25
-0.83
-0.7
0.79
0.43
0.44

> <PUBCHEM_SHAPE_SELFOVERLAP>
769.436

> <PUBCHEM_SHAPE_VOLUME>
209

> <PUBCHEM_COORDINATE_TYPE>
2
5
10

$$$$

