9013
  -OEChem-06261203193D

 25 25  0     0  0  0  0  0  0999 V2000
    3.0002   -0.4902    0.3813 O   0  0  0  0  0  0  0  0  0  0  0  0
   -3.4386   -1.3881   -0.1164 O   0  0  0  0  0  0  0  0  0  0  0  0
   -2.3936    0.7223   -0.0564 N   0  0  0  0  0  0  0  0  0  0  0  0
   -4.6890    0.5207   -0.2357 N   0  0  0  0  0  0  0  0  0  0  0  0
    1.6766   -0.1926    0.2739 C   0  0  0  0  0  0  0  0  0  0  0  0
   -1.0369    0.4175    0.0544 C   0  0  0  0  0  0  0  0  0  0  0  0
    1.2626    1.1386    0.2279 C   0  0  0  0  0  0  0  0  0  0  0  0
    0.7339   -1.2187    0.2102 C   0  0  0  0  0  0  0  0  0  0  0  0
   -0.0940    1.4437    0.1184 C   0  0  0  0  0  0  0  0  0  0  0  0
   -0.6228   -0.9138    0.1004 C   0  0  0  0  0  0  0  0  0  0  0  0
    3.9227    0.4350   -0.1921 C   0  0  0  0  0  0  0  0  0  0  0  0
    5.1625   -0.3136   -0.6327 C   0  0  0  0  0  0  0  0  0  0  0  0
   -3.4837   -0.1607   -0.1332 C   0  0  0  0  0  0  0  0  0  0  0  0
    1.9610    1.9669    0.3027 H   0  0  0  0  0  0  0  0  0  0  0  0
    1.0519   -2.2573    0.2455 H   0  0  0  0  0  0  0  0  0  0  0  0
   -0.4036    2.4854    0.0896 H   0  0  0  0  0  0  0  0  0  0  0  0
   -1.2926   -1.7612    0.0559 H   0  0  0  0  0  0  0  0  0  0  0  0
    3.5061    0.9309   -1.0780 H   0  0  0  0  0  0  0  0  0  0  0  0
    4.1909    1.1874    0.5577 H   0  0  0  0  0  0  0  0  0  0  0  0
   -2.6224    1.7129   -0.0849 H   0  0  0  0  0  0  0  0  0  0  0  0
    5.8979    0.3685   -1.0687 H   0  0  0  0  0  0  0  0  0  0  0  0
    5.6217   -0.8318    0.2157 H   0  0  0  0  0  0  0  0  0  0  0  0
    4.9082   -1.0794   -1.3730 H   0  0  0  0  0  0  0  0  0  0  0  0
   -5.5697    0.0212   -0.3000 H   0  0  0  0  0  0  0  0  0  0  0  0
   -4.7298    1.5341   -0.2499 H   0  0  0  0  0  0  0  0  0  0  0  0
  1  5  1  0  0  0  0
  1 11  1  0  0  0  0
  2 13  2  0  0  0  0
  3  6  1  0  0  0  0
  3 13  1  0  0  0  0
  3 20  1  0  0  0  0
  4 13  1  0  0  0  0
  4 24  1  0  0  0  0
  4 25  1  0  0  0  0
  5  7  2  0  0  0  0
  5  8  1  0  0  0  0
  6  9  2  0  0  0  0
  6 10  1  0  0  0  0
  7  9  1  0  0  0  0
  7 14  1  0  0  0  0
  8 10  2  0  0  0  0
  8 15  1  0  0  0  0
  9 16  1  0  0  0  0
 10 17  1  0  0  0  0
 11 12  1  0  0  0  0
 11 18  1  0  0  0  0
 11 19  1  0  0  0  0
 12 21  1  0  0  0  0
 12 22  1  0  0  0  0
 12 23  1  0  0  0  0
M  END
> <PUBCHEM_COMPOUND_CID>
9013

> <PUBCHEM_CONFORMER_RMSD>
0.6

> <PUBCHEM_CONFORMER_DIVERSEORDER>
2
11
19
14
9
17
21
20
16
10
23
3
22
13
15
18
8
7
5
12
4
6
1

> <PUBCHEM_MMFF94_PARTIAL_CHARGES>
19
1 -0.36
10 -0.15
11 0.28
13 0.69
14 0.15
15 0.15
16 0.15
17 0.15
2 -0.57
20 0.37
24 0.37
25 0.37
3 -0.55
4 -0.8
5 0.08
6 0.12
7 -0.15
8 -0.15
9 -0.15

> <PUBCHEM_EFFECTIVE_ROTOR_COUNT>
4

> <PUBCHEM_PHARMACOPHORE_FEATURES>
5
1 1 acceptor
1 2 acceptor
1 3 donor
1 4 donor
6 5 6 7 8 9 10 rings

> <PUBCHEM_HEAVY_ATOM_COUNT>
13

> <PUBCHEM_ATOM_DEF_STEREO_COUNT>
0

> <PUBCHEM_ATOM_UDEF_STEREO_COUNT>
0

> <PUBCHEM_BOND_DEF_STEREO_COUNT>
0

> <PUBCHEM_BOND_UDEF_STEREO_COUNT>
0

> <PUBCHEM_ISOTOPIC_ATOM_COUNT>
0

> <PUBCHEM_COMPONENT_COUNT>
1

> <PUBCHEM_CACTVS_TAUTO_COUNT>
3

> <PUBCHEM_CONFORMER_ID>
0000233500000002

> <PUBCHEM_MMFF94_ENERGY>
40.1106

> <PUBCHEM_FEATURE_SELFOVERLAP>
25.42

> <PUBCHEM_SHAPE_FINGERPRINT>
11062470 55 16343704343646049353
11401426 45 18410296904005490064
12032990 46 18335136466747694082
13690532 89 18411418427815327250
13760787 19 17703793621577214283
14325111 11 18338802217330104089
14911166 2 18411135835888689340
14993402 34 18412825780907584940
15048467 5 17346598586144089277
15536298 74 18261395482032887168
17834076 25 16702581636175032612
18186145 218 18342468010144742860
187816 3 18343579651218845344
200 152 17821730533170353483
20645477 70 18338239391577819791
21267235 1 18409724029026440247
21293036 1 18413388735303679596
23402539 116 18335144189346805942
23402655 69 18339652238818991773
23559900 14 18335702707469061920
2748010 2 18123193398465395520
366044 4 18412825785292541426
42 15 6555414210724552516
449060 50 13254794638125285074
4990 188 18186795898789357166
8809292 202 18200873968388805347

> <PUBCHEM_SHAPE_MULTIPOLES>
245.83
8.64
1.29
0.66
1.77
0.01
-0.01
-0.67
-1.87
-0.31
0.06
0.22
-0.01
0.03

> <PUBCHEM_SHAPE_SELFOVERLAP>
502.392

> <PUBCHEM_SHAPE_VOLUME>
141.5

> <PUBCHEM_COORDINATE_TYPE>
2
5
10

$$$$

