13655
  -OEChem-06241222393D

 15 15  0     0  0  0  0  0  0999 V2000
   -2.5436    1.8249   -0.0018 Cl  0  0  0  0  0  0  0  0  0  0  0  0
   -1.6106   -2.3883   -0.0011 O   0  5  0  0  0  0  0  0  0  0  0  0
   -3.0184   -0.7038   -0.0001 O   0  0  0  0  0  0  0  0  0  0  0  0
   -1.8507   -1.1583   -0.0001 N   0  3  0  0  0  0  0  0  0  0  0  0
    4.0401   -0.8564   -0.0018 N   0  0  0  0  0  0  0  0  0  0  0  0
   -0.7584   -0.2456    0.0016 C   0  0  0  0  0  0  0  0  0  0  0  0
    0.5373   -0.7623    0.0020 C   0  0  0  0  0  0  0  0  0  0  0  0
   -0.9585    1.1350    0.0005 C   0  0  0  0  0  0  0  0  0  0  0  0
    1.6327    0.1014    0.0013 C   0  0  0  0  0  0  0  0  0  0  0  0
    0.1370    1.9985   -0.0002 C   0  0  0  0  0  0  0  0  0  0  0  0
    1.4326    1.4817    0.0002 C   0  0  0  0  0  0  0  0  0  0  0  0
    2.9605   -0.4268   -0.0005 C   0  0  0  0  0  0  0  0  0  0  0  0
    0.7227   -1.8348    0.0022 H   0  0  0  0  0  0  0  0  0  0  0  0
   -0.0015    3.0767   -0.0013 H   0  0  0  0  0  0  0  0  0  0  0  0
    2.2763    2.1677   -0.0008 H   0  0  0  0  0  0  0  0  0  0  0  0
  1  8  1  0  0  0  0
  2  4  1  0  0  0  0
  3  4  2  0  0  0  0
  4  6  1  0  0  0  0
  5 12  3  0  0  0  0
  6  7  1  0  0  0  0
  6  8  2  0  0  0  0
  7  9  2  0  0  0  0
  7 13  1  0  0  0  0
  8 10  1  0  0  0  0
  9 11  1  0  0  0  0
  9 12  1  0  0  0  0
 10 11  2  0  0  0  0
 10 14  1  0  0  0  0
 11 15  1  0  0  0  0
M  CHG  2   2  -1   4   1
M  END
> <PUBCHEM_COMPOUND_CID>
13655

> <PUBCHEM_CONFORMER_RMSD>
0.4

> <PUBCHEM_CONFORMER_DIVERSEORDER>
1

> <PUBCHEM_MMFF94_PARTIAL_CHARGES>
15
1 -0.18
10 -0.15
11 -0.15
12 0.48
13 0.15
14 0.15
15 0.15
2 -0.52
3 -0.52
4 0.91
5 -0.56
6 0.13
7 -0.15
8 0.18
9 0.07

> <PUBCHEM_EFFECTIVE_ROTOR_COUNT>
1

> <PUBCHEM_PHARMACOPHORE_FEATURES>
5
1 2 acceptor
1 2 anion
1 3 acceptor
1 5 acceptor
6 6 7 8 9 10 11 rings

> <PUBCHEM_HEAVY_ATOM_COUNT>
12

> <PUBCHEM_ATOM_DEF_STEREO_COUNT>
0

> <PUBCHEM_ATOM_UDEF_STEREO_COUNT>
0

> <PUBCHEM_BOND_DEF_STEREO_COUNT>
0

> <PUBCHEM_BOND_UDEF_STEREO_COUNT>
0

> <PUBCHEM_ISOTOPIC_ATOM_COUNT>
0

> <PUBCHEM_COMPONENT_COUNT>
1

> <PUBCHEM_CACTVS_TAUTO_COUNT>
1

> <PUBCHEM_CONFORMER_ID>
0000355700000001

> <PUBCHEM_MMFF94_ENERGY>
36.53

> <PUBCHEM_FEATURE_SELFOVERLAP>
25.453

> <PUBCHEM_SHAPE_FINGERPRINT>
13380535 220 18343299253878538676
13380535 76 18191308384255806503
14128692 85 18341045225298242204
16945 1 18050568439189942341
193761 8 18266740186174604676
20588541 1 18190741032124514916
20711985 365 18411136926610084861
20871998 184 18187646933384085342
21040471 1 18266458900207973633
21501502 16 18338229375666391788
23402539 116 18189629395835854013
23463225 33 18341331205743125526
23552423 10 18128535972714790924
23559900 14 18263084470044001054
241688 4 18341333314150334864
2748010 2 18337678520441031348
528886 8 18266184009410729729
6333449 129 18336549424951698996
7364860 26 18191304867078913832
75552 356 18409730698582889908

> <PUBCHEM_SHAPE_MULTIPOLES>
227.12
4.74
2.19
0.59
2.97
0.14
0
1
0
-1.38
0
0.01
-0.05
0

> <PUBCHEM_SHAPE_SELFOVERLAP>
472.31

> <PUBCHEM_SHAPE_VOLUME>
129.7

> <PUBCHEM_COORDINATE_TYPE>
2
5
10

$$$$

