13072
  -OEChem-06261207433D

 32 32  0     0  0  0  0  0  0999 V2000
   -1.8799    0.2581    0.9373 O   0  0  0  0  0  0  0  0  0  0  0  0
   -2.4200   -0.2784   -1.2596 O   0  0  0  0  0  0  0  0  0  0  0  0
   -3.9548   -0.5921    0.4515 N   0  0  0  0  0  0  0  0  0  0  0  0
    2.7841   -0.8402   -0.0222 C   0  0  0  0  0  0  0  0  0  0  0  0
    1.6190    0.1775    0.0286 C   0  0  0  0  0  0  0  0  0  0  0  0
    3.9341   -0.3666    0.8932 C   0  0  0  0  0  0  0  0  0  0  0  0
    3.3028   -0.9716   -1.4707 C   0  0  0  0  0  0  0  0  0  0  0  0
    2.3805   -2.2552    0.4476 C   0  0  0  0  0  0  0  0  0  0  0  0
    0.4004   -0.2647    0.4639 C   0  0  0  0  0  0  0  0  0  0  0  0
    1.8731    1.4625   -0.3639 C   0  0  0  0  0  0  0  0  0  0  0  0
   -0.6494    0.6527    0.5103 C   0  0  0  0  0  0  0  0  0  0  0  0
    0.8234    2.3798   -0.3176 C   0  0  0  0  0  0  0  0  0  0  0  0
   -0.4377    1.9749    0.1197 C   0  0  0  0  0  0  0  0  0  0  0  0
   -2.7359   -0.2172   -0.0750 C   0  0  0  0  0  0  0  0  0  0  0  0
   -5.0397   -1.1196   -0.3430 C   0  0  0  0  0  0  0  0  0  0  0  0
    4.7515   -1.0970    0.9097 H   0  0  0  0  0  0  0  0  0  0  0  0
    4.3644    0.5851    0.5629 H   0  0  0  0  0  0  0  0  0  0  0  0
    3.5873   -0.2311    1.9245 H   0  0  0  0  0  0  0  0  0  0  0  0
    2.4989   -1.2755   -2.1516 H   0  0  0  0  0  0  0  0  0  0  0  0
    3.7183   -0.0320   -1.8509 H   0  0  0  0  0  0  0  0  0  0  0  0
    4.0987   -1.7225   -1.5384 H   0  0  0  0  0  0  0  0  0  0  0  0
    3.2369   -2.9393    0.3948 H   0  0  0  0  0  0  0  0  0  0  0  0
    2.0422   -2.2626    1.4905 H   0  0  0  0  0  0  0  0  0  0  0  0
    1.5967   -2.6913   -0.1830 H   0  0  0  0  0  0  0  0  0  0  0  0
    0.1864   -1.2781    0.7782 H   0  0  0  0  0  0  0  0  0  0  0  0
    2.8456    1.7971   -0.7070 H   0  0  0  0  0  0  0  0  0  0  0  0
    0.9878    3.4095   -0.6217 H   0  0  0  0  0  0  0  0  0  0  0  0
   -1.2509    2.6949    0.1540 H   0  0  0  0  0  0  0  0  0  0  0  0
   -4.0969   -0.4921    1.4519 H   0  0  0  0  0  0  0  0  0  0  0  0
   -5.9023   -0.4598   -0.2230 H   0  0  0  0  0  0  0  0  0  0  0  0
   -5.2891   -2.1132    0.0374 H   0  0  0  0  0  0  0  0  0  0  0  0
   -4.7663   -1.1844   -1.3987 H   0  0  0  0  0  0  0  0  0  0  0  0
  1 11  1  0  0  0  0
  1 14  1  0  0  0  0
  2 14  2  0  0  0  0
  3 14  1  0  0  0  0
  3 15  1  0  0  0  0
  3 29  1  0  0  0  0
  4  5  1  0  0  0  0
  4  6  1  0  0  0  0
  4  7  1  0  0  0  0
  4  8  1  0  0  0  0
  5  9  2  0  0  0  0
  5 10  1  0  0  0  0
  6 16  1  0  0  0  0
  6 17  1  0  0  0  0
  6 18  1  0  0  0  0
  7 19  1  0  0  0  0
  7 20  1  0  0  0  0
  7 21  1  0  0  0  0
  8 22  1  0  0  0  0
  8 23  1  0  0  0  0
  8 24  1  0  0  0  0
  9 11  1  0  0  0  0
  9 25  1  0  0  0  0
 10 12  2  0  0  0  0
 10 26  1  0  0  0  0
 11 13  2  0  0  0  0
 12 13  1  0  0  0  0
 12 27  1  0  0  0  0
 13 28  1  0  0  0  0
 15 30  1  0  0  0  0
 15 31  1  0  0  0  0
 15 32  1  0  0  0  0
M  END
> <PUBCHEM_COMPOUND_CID>
13072

> <PUBCHEM_CONFORMER_RMSD>
0.6

> <PUBCHEM_CONFORMER_DIVERSEORDER>
1
37
44
14
50
45
48
7
43
32
30
40
23
31
27
18
33
26
36
49
28
19
8
38
15
39
20
25
42
22
17
9
6
21
51
13
16
4
5
46
34
35
12
29
41
11
47
24
3
10
2

> <PUBCHEM_MMFF94_PARTIAL_CHARGES>
17
1 -0.23
10 -0.15
11 0.08
12 -0.15
13 -0.15
14 0.78
15 0.3
2 -0.57
25 0.15
26 0.15
27 0.15
28 0.15
29 0.37
3 -0.73
4 0.14
5 -0.14
9 -0.15

> <PUBCHEM_EFFECTIVE_ROTOR_COUNT>
4

> <PUBCHEM_PHARMACOPHORE_FEATURES>
4
1 2 acceptor
1 3 donor
4 4 6 7 8 hydrophobe
6 5 9 10 11 12 13 rings

> <PUBCHEM_HEAVY_ATOM_COUNT>
15

> <PUBCHEM_ATOM_DEF_STEREO_COUNT>
0

> <PUBCHEM_ATOM_UDEF_STEREO_COUNT>
0

> <PUBCHEM_BOND_DEF_STEREO_COUNT>
0

> <PUBCHEM_BOND_UDEF_STEREO_COUNT>
0

> <PUBCHEM_ISOTOPIC_ATOM_COUNT>
0

> <PUBCHEM_COMPONENT_COUNT>
1

> <PUBCHEM_CACTVS_TAUTO_COUNT>
2

> <PUBCHEM_CONFORMER_ID>
0000331000000001

> <PUBCHEM_MMFF94_ENERGY>
49.3593

> <PUBCHEM_FEATURE_SELFOVERLAP>
20.297

> <PUBCHEM_SHAPE_FINGERPRINT>
10618630 7 18336264634302368914
11471102 20 18342177713589990733
11543360 7 15482376574094931019
11578080 2 17895778260651554881
11806522 49 18408886217928998512
122479 349 9078818693463920477
12553582 1 18269539667327407234
13296908 3 18336267937084720756
13675066 3 17748544844782202755
14178342 30 18120661485538400408
14251717 144 18411981325722868834
14252887 29 18113051645113788166
14576447 43 18410854352121986782
15342816 4 18409726296289215814
15477762 27 18411982442377442490
15757776 16 18412825802488156826
15848700 24 18411982472600378132
16945 1 18272076232569017480
18186145 218 17632302250864240497
19422 9 18261103037988816113
200 152 18130508625656187514
20281475 54 18339355387373856664
20339313 130 18335415747080616425
20361792 2 18408887355821077405
20645477 70 18337953385847981047
20671657 53 18342459261317446817
20871998 22 18334572490444743164
21296965 67 18410014359619060337
21501925 9 18409171004140956120
22112679 90 18042380552265705865
221490 88 18127402346394255475
2255824 54 18339919299347308676
23402539 116 18270687583790373498
23419403 2 18049480073329867024
23557571 272 18261956374876081368
23598291 2 18189312672067943009
2748010 2 17911217452635746440
3286 77 17988933253447514599
4463277 69 17894910779998633455
6338986 31 18340494477162130112
7364860 26 18188207577046011816
81228 2 18055911245679016344
83771 10 18408887351562981209
94968 8 18410851062282416166

> <PUBCHEM_SHAPE_MULTIPOLES>
291.97
7.54
2.06
1.02
7.67
0.69
0.22
-4.74
0.57
-0.93
0.08
-0.4
-0.18
-0.21

> <PUBCHEM_SHAPE_SELFOVERLAP>
598.337

> <PUBCHEM_SHAPE_VOLUME>
168.5

> <PUBCHEM_COORDINATE_TYPE>
2
5
10

$$$$

