4528
  -OEChem-06261200112D

 36 38  0     1  0  0  0  0  0999 V2000
    2.8660    1.3246    0.0000 N   0  0  3  0  0  0  0  0  0  0  0  0
    5.4804    2.8592    0.0000 N   0  0  0  0  0  0  0  0  0  0  0  0
    3.7320   -0.1754    0.0000 C   0  0  3  0  0  0  0  0  0  0  0  0
    2.8660    0.3246    0.0000 C   0  0  0  0  0  0  0  0  0  0  0  0
    4.5981    0.3246    0.0000 C   0  0  0  0  0  0  0  0  0  0  0  0
    3.7320    1.8246    0.0000 C   0  0  0  0  0  0  0  0  0  0  0  0
    4.5981    1.3246    0.0000 C   0  0  0  0  0  0  0  0  0  0  0  0
    3.7320   -1.1754    0.0000 C   0  0  0  0  0  0  0  0  0  0  0  0
    5.4920    1.8593    0.0000 C   0  0  0  0  0  0  0  0  0  0  0  0
    5.4920   -0.2101    0.0000 C   0  0  0  0  0  0  0  0  0  0  0  0
    2.0000    1.8246    0.0000 C   0  0  0  0  0  0  0  0  0  0  0  0
    6.3981    1.3454    0.0000 C   0  0  0  0  0  0  0  0  0  0  0  0
    2.8660   -1.6754    0.0000 C   0  0  0  0  0  0  0  0  0  0  0  0
    4.5981   -1.6754    0.0000 C   0  0  0  0  0  0  0  0  0  0  0  0
    6.3981    0.3038    0.0000 C   0  0  0  0  0  0  0  0  0  0  0  0
    2.8660   -2.6754    0.0000 C   0  0  0  0  0  0  0  0  0  0  0  0
    4.5981   -2.6754    0.0000 C   0  0  0  0  0  0  0  0  0  0  0  0
    3.7320   -3.1754    0.0000 C   0  0  0  0  0  0  0  0  0  0  0  0
    2.9959   -0.6004    0.0000 H   0  0  0  0  0  0  0  0  0  0  0  0
    2.2554    0.4323    0.0000 H   0  0  0  0  0  0  0  0  0  0  0  0
    2.6540   -0.2580    0.0000 H   0  0  0  0  0  0  0  0  0  0  0  0
    4.1306    2.2996    0.0000 H   0  0  0  0  0  0  0  0  0  0  0  0
    3.3335    2.2996    0.0000 H   0  0  0  0  0  0  0  0  0  0  0  0
    5.4848   -0.8300    0.0000 H   0  0  0  0  0  0  0  0  0  0  0  0
    2.3100    2.3615    0.0000 H   0  0  0  0  0  0  0  0  0  0  0  0
    1.4631    2.1346    0.0000 H   0  0  0  0  0  0  0  0  0  0  0  0
    1.6900    1.2877    0.0000 H   0  0  0  0  0  0  0  0  0  0  0  0
    6.9338    1.6575    0.0000 H   0  0  0  0  0  0  0  0  0  0  0  0
    2.3291   -1.3654    0.0000 H   0  0  0  0  0  0  0  0  0  0  0  0
    5.1350   -1.3654    0.0000 H   0  0  0  0  0  0  0  0  0  0  0  0
    6.9338   -0.0083    0.0000 H   0  0  0  0  0  0  0  0  0  0  0  0
    6.0138    3.1754    0.0000 H   0  0  0  0  0  0  0  0  0  0  0  0
    4.9400    3.1630    0.0000 H   0  0  0  0  0  0  0  0  0  0  0  0
    2.3291   -2.9854    0.0000 H   0  0  0  0  0  0  0  0  0  0  0  0
    5.1350   -2.9854    0.0000 H   0  0  0  0  0  0  0  0  0  0  0  0
    3.7320   -3.7954    0.0000 H   0  0  0  0  0  0  0  0  0  0  0  0
  1  4  1  0  0  0  0
  1  6  1  0  0  0  0
  1 11  1  0  0  0  0
  2  9  1  0  0  0  0
  2 32  1  0  0  0  0
  2 33  1  0  0  0  0
  3  4  1  0  0  0  0
  3  5  1  0  0  0  0
  3  8  1  0  0  0  0
  3 19  1  0  0  0  0
  4 20  1  0  0  0  0
  4 21  1  0  0  0  0
  5  7  2  0  0  0  0
  5 10  1  0  0  0  0
  6  7  1  0  0  0  0
  6 22  1  0  0  0  0
  6 23  1  0  0  0  0
  7  9  1  0  0  0  0
  8 13  2  0  0  0  0
  8 14  1  0  0  0  0
  9 12  2  0  0  0  0
 10 15  2  0  0  0  0
 10 24  1  0  0  0  0
 11 25  1  0  0  0  0
 11 26  1  0  0  0  0
 11 27  1  0  0  0  0
 12 15  1  0  0  0  0
 12 28  1  0  0  0  0
 13 16  1  0  0  0  0
 13 29  1  0  0  0  0
 14 17  2  0  0  0  0
 14 30  1  0  0  0  0
 15 31  1  0  0  0  0
 16 18  2  0  0  0  0
 16 34  1  0  0  0  0
 17 18  1  0  0  0  0
 17 35  1  0  0  0  0
 18 36  1  0  0  0  0
M  END
> <PUBCHEM_COMPOUND_CID>
4528

> <PUBCHEM_COMPOUND_CANONICALIZED>
1

> <PUBCHEM_CACTVS_COMPLEXITY>
272

> <PUBCHEM_CACTVS_HBOND_ACCEPTOR>
2

> <PUBCHEM_CACTVS_HBOND_DONOR>
1

> <PUBCHEM_CACTVS_ROTATABLE_BOND>
1

> <PUBCHEM_CACTVS_SUBSKEYS>
AAADceB7AAAAAAAAAAAAAAAAAAAAAAAAAAA8YIAAAAAAAACxQAAAHAAQAAAADQjBGAQywINAAACAAiRCQACCAAAgAgAIiAAIZIgIICKA0ZGEIAhgkACIyAcQgMAOgAAAQAASAAAAAACAACQAAAAAAAAAAA==

> <PUBCHEM_IUPAC_OPENEYE_NAME>
2-methyl-4-phenyl-3,4-dihydro-1H-isoquinolin-8-amine

> <PUBCHEM_IUPAC_CAS_NAME>
2-methyl-4-phenyl-3,4-dihydro-1H-isoquinolin-8-amine

> <PUBCHEM_IUPAC_NAME>
2-methyl-4-phenyl-3,4-dihydro-1H-isoquinolin-8-amine

> <PUBCHEM_IUPAC_SYSTEMATIC_NAME>
2-methyl-4-phenyl-3,4-dihydro-1H-isoquinolin-8-amine

> <PUBCHEM_IUPAC_TRADITIONAL_NAME>
(2-methyl-4-phenyl-3,4-dihydro-1H-isoquinolin-8-yl)amine

> <PUBCHEM_IUPAC_INCHI>
InChI=1S/C16H18N2/c1-18-10-14(12-6-3-2-4-7-12)13-8-5-9-16(17)15(13)11-18/h2-9,14H,10-11,17H2,1H3

> <PUBCHEM_IUPAC_INCHIKEY>
XXPANQJNYNUNES-UHFFFAOYSA-N

> <PUBCHEM_XLOGP3_AA>
2.6

> <PUBCHEM_EXACT_MASS>
238.146999

> <PUBCHEM_MOLECULAR_FORMULA>
C16H18N2

> <PUBCHEM_MOLECULAR_WEIGHT>
238.32752

> <PUBCHEM_OPENEYE_CAN_SMILES>
CN1CC(C2=C(C1)C(=CC=C2)N)C3=CC=CC=C3

> <PUBCHEM_OPENEYE_ISO_SMILES>
CN1CC(C2=C(C1)C(=CC=C2)N)C3=CC=CC=C3

> <PUBCHEM_CACTVS_TPSA>
29.3

> <PUBCHEM_MONOISOTOPIC_WEIGHT>
238.146999

> <PUBCHEM_TOTAL_CHARGE>
0

> <PUBCHEM_HEAVY_ATOM_COUNT>
18

> <PUBCHEM_ATOM_DEF_STEREO_COUNT>
0

> <PUBCHEM_ATOM_UDEF_STEREO_COUNT>
1

> <PUBCHEM_BOND_DEF_STEREO_COUNT>
0

> <PUBCHEM_BOND_UDEF_STEREO_COUNT>
0

> <PUBCHEM_ISOTOPIC_ATOM_COUNT>
0

> <PUBCHEM_COMPONENT_COUNT>
1

> <PUBCHEM_CACTVS_TAUTO_COUNT>
1

> <PUBCHEM_COORDINATE_TYPE>
1
5
255

> <PUBCHEM_BONDANNOTATIONS>
10  15  8
12  15  8
13  16  8
14  17  8
16  18  8
17  18  8
3  19  3
5  10  8
5  7  8
7  9  8
8  13  8
8  14  8
9  12  8

$$$$

