17395917
  -OEChem-06241222532D

 43 44  0     0  0  0  0  0  0999 V2000
    2.0000    4.3770    0.0000 F   0  0  0  0  0  0  0  0  0  0  0  0
    3.3660    4.7430    0.0000 F   0  0  0  0  0  0  0  0  0  0  0  0
    2.3660    3.0110    0.0000 F   0  0  0  0  0  0  0  0  0  0  0  0
    4.5981   -1.1230    0.0000 O   0  0  0  0  0  0  0  0  0  0  0  0
    8.0622   -1.1230    0.0000 O   0  0  0  0  0  0  0  0  0  0  0  0
    5.4641    0.3770    0.0000 N   0  0  0  0  0  0  0  0  0  0  0  0
    8.0622   -4.1230    0.0000 N   0  0  0  0  0  0  0  0  0  0  0  0
    8.9282   -2.6230    0.0000 N   0  0  0  0  0  0  0  0  0  0  0  0
    6.3301   -2.1230    0.0000 C   0  0  0  0  0  0  0  0  0  0  0  0
    7.1962   -2.6230    0.0000 C   0  0  0  0  0  0  0  0  0  0  0  0
    6.3301   -1.1230    0.0000 C   0  0  0  0  0  0  0  0  0  0  0  0
    7.1962   -3.6230    0.0000 C   0  0  0  0  0  0  0  0  0  0  0  0
    5.4641   -0.6230    0.0000 C   0  0  0  0  0  0  0  0  0  0  0  0
    4.5981    0.8770    0.0000 C   0  0  0  0  0  0  0  0  0  0  0  0
    4.5981    1.8770    0.0000 C   0  0  0  0  0  0  0  0  0  0  0  0
    8.0622   -2.1230    0.0000 C   0  0  0  0  0  0  0  0  0  0  0  0
    8.9282   -3.6230    0.0000 C   0  0  0  0  0  0  0  0  0  0  0  0
    6.3301   -4.1230    0.0000 C   0  0  0  0  0  0  0  0  0  0  0  0
    3.7320    2.3770    0.0000 C   0  0  0  0  0  0  0  0  0  0  0  0
    3.7320    3.3770    0.0000 C   0  0  0  0  0  0  0  0  0  0  0  0
    5.4641    2.3770    0.0000 C   0  0  0  0  0  0  0  0  0  0  0  0
    4.5981    3.8770    0.0000 C   0  0  0  0  0  0  0  0  0  0  0  0
    5.4641    3.3770    0.0000 C   0  0  0  0  0  0  0  0  0  0  0  0
    9.7942   -4.1230    0.0000 C   0  0  0  0  0  0  0  0  0  0  0  0
    2.8660    3.8770    0.0000 C   0  0  0  0  0  0  0  0  0  0  0  0
    5.7196   -2.0154    0.0000 H   0  0  0  0  0  0  0  0  0  0  0  0
    6.1181   -2.7056    0.0000 H   0  0  0  0  0  0  0  0  0  0  0  0
    6.9407   -1.2307    0.0000 H   0  0  0  0  0  0  0  0  0  0  0  0
    6.5422   -0.5404    0.0000 H   0  0  0  0  0  0  0  0  0  0  0  0
    3.9875    0.9846    0.0000 H   0  0  0  0  0  0  0  0  0  0  0  0
    4.3860    0.2944    0.0000 H   0  0  0  0  0  0  0  0  0  0  0  0
    6.0010    0.6870    0.0000 H   0  0  0  0  0  0  0  0  0  0  0  0
    8.0622   -4.7430    0.0000 H   0  0  0  0  0  0  0  0  0  0  0  0
    6.0201   -3.5861    0.0000 H   0  0  0  0  0  0  0  0  0  0  0  0
    5.7932   -4.4330    0.0000 H   0  0  0  0  0  0  0  0  0  0  0  0
    6.6401   -4.6600    0.0000 H   0  0  0  0  0  0  0  0  0  0  0  0
    3.1951    2.0670    0.0000 H   0  0  0  0  0  0  0  0  0  0  0  0
    6.0010    2.0670    0.0000 H   0  0  0  0  0  0  0  0  0  0  0  0
    4.5981    4.4970    0.0000 H   0  0  0  0  0  0  0  0  0  0  0  0
    6.0010    3.6870    0.0000 H   0  0  0  0  0  0  0  0  0  0  0  0
    9.4842   -4.6600    0.0000 H   0  0  0  0  0  0  0  0  0  0  0  0
   10.3312   -4.4330    0.0000 H   0  0  0  0  0  0  0  0  0  0  0  0
   10.1042   -3.5861    0.0000 H   0  0  0  0  0  0  0  0  0  0  0  0
  1 25  1  0  0  0  0
  2 25  1  0  0  0  0
  3 25  1  0  0  0  0
  4 13  2  0  0  0  0
  5 16  2  0  0  0  0
  6 13  1  0  0  0  0
  6 14  1  0  0  0  0
  6 32  1  0  0  0  0
  7 12  1  0  0  0  0
  7 17  1  0  0  0  0
  7 33  1  0  0  0  0
  8 16  1  0  0  0  0
  8 17  2  0  0  0  0
  9 10  1  0  0  0  0
  9 11  1  0  0  0  0
  9 26  1  0  0  0  0
  9 27  1  0  0  0  0
 10 12  2  0  0  0  0
 10 16  1  0  0  0  0
 11 13  1  0  0  0  0
 11 28  1  0  0  0  0
 11 29  1  0  0  0  0
 12 18  1  0  0  0  0
 14 15  1  0  0  0  0
 14 30  1  0  0  0  0
 14 31  1  0  0  0  0
 15 19  2  0  0  0  0
 15 21  1  0  0  0  0
 17 24  1  0  0  0  0
 18 34  1  0  0  0  0
 18 35  1  0  0  0  0
 18 36  1  0  0  0  0
 19 20  1  0  0  0  0
 19 37  1  0  0  0  0
 20 22  2  0  0  0  0
 20 25  1  0  0  0  0
 21 23  2  0  0  0  0
 21 38  1  0  0  0  0
 22 23  1  0  0  0  0
 22 39  1  0  0  0  0
 23 40  1  0  0  0  0
 24 41  1  0  0  0  0
 24 42  1  0  0  0  0
 24 43  1  0  0  0  0
M  END
> <PUBCHEM_COMPOUND_CID>
17395917

> <PUBCHEM_COMPOUND_CANONICALIZED>
1

> <PUBCHEM_CACTVS_COMPLEXITY>
596

> <PUBCHEM_CACTVS_HBOND_ACCEPTOR>
5

> <PUBCHEM_CACTVS_HBOND_DONOR>
2

> <PUBCHEM_CACTVS_ROTATABLE_BOND>
5

> <PUBCHEM_CACTVS_SUBSKEYS>
AAADceB7MYAAAAAAAAAAAAAAAAAAAAAAAAAwQAAAAAAAAAABAAAAHwAQAAAADAjBmBQzAILAAACoAidydACCAAEgAAAJiIEYBMgIIDKAmRGEIAhglgCIiUcYg0AOAAACAAAAAAAAAAQAAAAAAAAAAAAAAA==

> <PUBCHEM_IUPAC_OPENEYE_NAME>
3-(2,6-dimethyl-4-oxo-1H-pyrimidin-5-yl)-N-[[3-(trifluoromethyl)phenyl]methyl]propanamide

> <PUBCHEM_IUPAC_CAS_NAME>
3-(2,6-dimethyl-4-oxo-1H-pyrimidin-5-yl)-N-[[3-(trifluoromethyl)phenyl]methyl]propanamide

> <PUBCHEM_IUPAC_NAME>
3-(2,6-dimethyl-4-oxo-1H-pyrimidin-5-yl)-N-[[3-(trifluoromethyl)phenyl]methyl]propanamide

> <PUBCHEM_IUPAC_SYSTEMATIC_NAME>
3-(2,6-dimethyl-4-oxidanylidene-1H-pyrimidin-5-yl)-N-[[3-(trifluoromethyl)phenyl]methyl]propanamide

> <PUBCHEM_IUPAC_TRADITIONAL_NAME>
3-(4-keto-2,6-dimethyl-1H-pyrimidin-5-yl)-N-[3-(trifluoromethyl)benzyl]propionamide

> <PUBCHEM_IUPAC_INCHI>
InChI=1S/C17H18F3N3O2/c1-10-14(16(25)23-11(2)22-10)6-7-15(24)21-9-12-4-3-5-13(8-12)17(18,19)20/h3-5,8H,6-7,9H2,1-2H3,(H,21,24)(H,22,23,25)

> <PUBCHEM_IUPAC_INCHIKEY>
BTLDHIUFWJWBHF-UHFFFAOYSA-N

> <PUBCHEM_XLOGP3_AA>
1.5

> <PUBCHEM_EXACT_MASS>
353.135111

> <PUBCHEM_MOLECULAR_FORMULA>
C17H18F3N3O2

> <PUBCHEM_MOLECULAR_WEIGHT>
353.33893

> <PUBCHEM_OPENEYE_CAN_SMILES>
CC1=C(C(=O)N=C(N1)C)CCC(=O)NCC2=CC(=CC=C2)C(F)(F)F

> <PUBCHEM_OPENEYE_ISO_SMILES>
CC1=C(C(=O)N=C(N1)C)CCC(=O)NCC2=CC(=CC=C2)C(F)(F)F

> <PUBCHEM_CACTVS_TPSA>
70.6

> <PUBCHEM_MONOISOTOPIC_WEIGHT>
353.135111

> <PUBCHEM_TOTAL_CHARGE>
0

> <PUBCHEM_HEAVY_ATOM_COUNT>
25

> <PUBCHEM_ATOM_DEF_STEREO_COUNT>
0

> <PUBCHEM_ATOM_UDEF_STEREO_COUNT>
0

> <PUBCHEM_BOND_DEF_STEREO_COUNT>
0

> <PUBCHEM_BOND_UDEF_STEREO_COUNT>
0

> <PUBCHEM_ISOTOPIC_ATOM_COUNT>
0

> <PUBCHEM_COMPONENT_COUNT>
1

> <PUBCHEM_CACTVS_TAUTO_COUNT>
6

> <PUBCHEM_COORDINATE_TYPE>
1
5
255

> <PUBCHEM_BONDANNOTATIONS>
10  12  8
10  16  8
15  19  8
15  21  8
19  20  8
20  22  8
21  23  8
22  23  8
7  12  8
7  17  8
8  16  8
8  17  8

$$$$

