12865
  -OEChem-06261207282D

 34 35  0     0  0  0  0  0  0999 V2000
    4.4694    1.5794    0.0000 O   0  0  0  0  0  0  0  0  0  0  0  0
    6.5385   -1.2685    0.0000 O   0  0  0  0  0  0  0  0  0  0  0  0
    4.7784   -0.9897    0.0000 N   0  0  0  0  0  0  0  0  0  0  0  0
    5.7295    0.3193    0.0000 N   0  0  0  0  0  0  0  0  0  0  0  0
    4.1906   -0.1807    0.0000 C   0  0  0  0  0  0  0  0  0  0  0  0
    3.7568   -1.0817    0.0000 C   0  0  0  0  0  0  0  0  0  0  0  0
    3.7568    0.7203    0.0000 C   0  0  0  0  0  0  0  0  0  0  0  0
    2.7818   -1.3042    0.0000 C   0  0  0  0  0  0  0  0  0  0  0  0
    2.7818    0.9428    0.0000 C   0  0  0  0  0  0  0  0  0  0  0  0
    2.0000   -0.6807    0.0000 C   0  0  0  0  0  0  0  0  0  0  0  0
    2.0000    0.3193    0.0000 C   0  0  0  0  0  0  0  0  0  0  0  0
    4.7784    0.6283    0.0000 C   0  0  0  0  0  0  0  0  0  0  0  0
    5.7295   -0.6807    0.0000 C   0  0  0  0  0  0  0  0  0  0  0  0
    6.5385    0.9071    0.0000 C   0  0  0  0  0  0  0  0  0  0  0  0
    7.4520    0.5003    0.0000 C   0  0  0  0  0  0  0  0  0  0  0  0
    8.2611    1.0881    0.0000 C   0  0  0  0  0  0  0  0  0  0  0  0
    4.3612    0.8582    0.0000 H   0  0  0  0  0  0  0  0  0  0  0  0
    3.7568    1.3403    0.0000 H   0  0  0  0  0  0  0  0  0  0  0  0
    3.7568   -1.7017    0.0000 H   0  0  0  0  0  0  0  0  0  0  0  0
    4.3612   -1.2196    0.0000 H   0  0  0  0  0  0  0  0  0  0  0  0
    2.2971   -1.6908    0.0000 H   0  0  0  0  0  0  0  0  0  0  0  0
    3.0508   -1.8628    0.0000 H   0  0  0  0  0  0  0  0  0  0  0  0
    3.0508    1.5014    0.0000 H   0  0  0  0  0  0  0  0  0  0  0  0
    2.2971    1.3294    0.0000 H   0  0  0  0  0  0  0  0  0  0  0  0
    1.7310    0.8779    0.0000 H   0  0  0  0  0  0  0  0  0  0  0  0
    1.3955    0.1813    0.0000 H   0  0  0  0  0  0  0  0  0  0  0  0
    1.3955   -0.5427    0.0000 H   0  0  0  0  0  0  0  0  0  0  0  0
    1.7310   -1.2393    0.0000 H   0  0  0  0  0  0  0  0  0  0  0  0
    4.5868   -1.5794    0.0000 H   0  0  0  0  0  0  0  0  0  0  0  0
    6.8852    1.4211    0.0000 H   0  0  0  0  0  0  0  0  0  0  0  0
    6.0925    1.3378    0.0000 H   0  0  0  0  0  0  0  0  0  0  0  0
    7.5168   -0.1163    0.0000 H   0  0  0  0  0  0  0  0  0  0  0  0
    8.8275    0.8360    0.0000 H   0  0  0  0  0  0  0  0  0  0  0  0
    8.1963    1.7047    0.0000 H   0  0  0  0  0  0  0  0  0  0  0  0
  1 12  2  0  0  0  0
  2 13  2  0  0  0  0
  3  5  1  0  0  0  0
  3 13  1  0  0  0  0
  3 29  1  0  0  0  0
  4 12  1  0  0  0  0
  4 13  1  0  0  0  0
  4 14  1  0  0  0  0
  5  6  1  0  0  0  0
  5  7  1  0  0  0  0
  5 12  1  0  0  0  0
  6  8  1  0  0  0  0
  6 19  1  0  0  0  0
  6 20  1  0  0  0  0
  7  9  1  0  0  0  0
  7 17  1  0  0  0  0
  7 18  1  0  0  0  0
  8 10  1  0  0  0  0
  8 21  1  0  0  0  0
  8 22  1  0  0  0  0
  9 11  1  0  0  0  0
  9 23  1  0  0  0  0
  9 24  1  0  0  0  0
 10 11  1  0  0  0  0
 10 27  1  0  0  0  0
 10 28  1  0  0  0  0
 11 25  1  0  0  0  0
 11 26  1  0  0  0  0
 14 15  1  0  0  0  0
 14 30  1  0  0  0  0
 14 31  1  0  0  0  0
 15 16  2  0  0  0  0
 15 32  1  0  0  0  0
 16 33  1  0  0  0  0
 16 34  1  0  0  0  0
M  END
> <PUBCHEM_COMPOUND_CID>
12865

> <PUBCHEM_COMPOUND_CANONICALIZED>
1

> <PUBCHEM_CACTVS_COMPLEXITY>
317

> <PUBCHEM_CACTVS_HBOND_ACCEPTOR>
2

> <PUBCHEM_CACTVS_HBOND_DONOR>
1

> <PUBCHEM_CACTVS_ROTATABLE_BOND>
2

> <PUBCHEM_CACTVS_SUBSKEYS>
AAADceBzMAAAAAAAAAAAAAAAAAAAAWAAAAAAAAAABgAAAAAAAAAAHgAQAAAADIjBgAQBAAPAAACIACFSEACAAAAAAAAIAAGIAACAQBIAgSAUAAAIFyKAAAEYiMCOAAAAAAAAAAAAAAAAAAAAAAAAAAAAAA==

> <PUBCHEM_IUPAC_OPENEYE_NAME>
3-allyl-1,3-diazaspiro[4.6]undecane-2,4-dione

> <PUBCHEM_IUPAC_CAS_NAME>
3-prop-2-enyl-1,3-diazaspiro[4.6]undecane-2,4-dione

> <PUBCHEM_IUPAC_NAME>
3-prop-2-enyl-1,3-diazaspiro[4.6]undecane-2,4-dione

> <PUBCHEM_IUPAC_SYSTEMATIC_NAME>
3-prop-2-enyl-1,3-diazaspiro[4.6]undecane-2,4-dione

> <PUBCHEM_IUPAC_TRADITIONAL_NAME>
3-allyl-1,3-diazaspiro[4.6]undecane-2,4-quinone

> <PUBCHEM_IUPAC_INCHI>
InChI=1S/C12H18N2O2/c1-2-9-14-10(15)12(13-11(14)16)7-5-3-4-6-8-12/h2H,1,3-9H2,(H,13,16)

> <PUBCHEM_IUPAC_INCHIKEY>
CMIYRAQJNQRNGC-UHFFFAOYSA-N

> <PUBCHEM_XLOGP3_AA>
1.9

> <PUBCHEM_EXACT_MASS>
222.136828

> <PUBCHEM_MOLECULAR_FORMULA>
C12H18N2O2

> <PUBCHEM_MOLECULAR_WEIGHT>
222.28352

> <PUBCHEM_OPENEYE_CAN_SMILES>
C=CCN1C(=O)C2(CCCCCC2)NC1=O

> <PUBCHEM_OPENEYE_ISO_SMILES>
C=CCN1C(=O)C2(CCCCCC2)NC1=O

> <PUBCHEM_CACTVS_TPSA>
49.4

> <PUBCHEM_MONOISOTOPIC_WEIGHT>
222.136828

> <PUBCHEM_TOTAL_CHARGE>
0

> <PUBCHEM_HEAVY_ATOM_COUNT>
16

> <PUBCHEM_ATOM_DEF_STEREO_COUNT>
0

> <PUBCHEM_ATOM_UDEF_STEREO_COUNT>
0

> <PUBCHEM_BOND_DEF_STEREO_COUNT>
0

> <PUBCHEM_BOND_UDEF_STEREO_COUNT>
0

> <PUBCHEM_ISOTOPIC_ATOM_COUNT>
0

> <PUBCHEM_COMPONENT_COUNT>
1

> <PUBCHEM_CACTVS_TAUTO_COUNT>
2

> <PUBCHEM_COORDINATE_TYPE>
1
5
255

$$$$

