4979
  -OEChem-06261200272D

 34 36  0     0  0  0  0  0  0999 V2000
    6.8671    0.9777    0.0000 O   0  0  0  0  0  0  0  0  0  0  0  0
    6.8671   -2.0223    0.0000 O   0  0  0  0  0  0  0  0  0  0  0  0
    8.6155    2.0123    0.0000 O   0  0  0  0  0  0  0  0  0  0  0  0
    8.6155   -2.0569    0.0000 O   0  0  0  0  0  0  0  0  0  0  0  0
   10.3972    1.0019    0.0000 O   0  0  0  0  0  0  0  0  0  0  0  0
    2.5369   -2.5223    0.0000 O   0  0  0  0  0  0  0  0  0  0  0  0
    7.7331   -0.5223    0.0000 C   0  0  0  0  0  0  0  0  0  0  0  0
    6.0010   -0.5223    0.0000 C   0  0  0  0  0  0  0  0  0  0  0  0
    7.7331    0.4777    0.0000 C   0  0  0  0  0  0  0  0  0  0  0  0
    6.8671   -1.0223    0.0000 C   0  0  0  0  0  0  0  0  0  0  0  0
    5.1350   -1.0223    0.0000 C   0  0  0  0  0  0  0  0  0  0  0  0
    8.6270   -1.0569    0.0000 C   0  0  0  0  0  0  0  0  0  0  0  0
    8.6270    1.0124    0.0000 C   0  0  0  0  0  0  0  0  0  0  0  0
    6.0010    0.4777    0.0000 C   0  0  0  0  0  0  0  0  0  0  0  0
    9.5331   -0.5431    0.0000 C   0  0  0  0  0  0  0  0  0  0  0  0
    9.5331    0.4985    0.0000 C   0  0  0  0  0  0  0  0  0  0  0  0
    5.1350   -2.0223    0.0000 C   0  0  0  0  0  0  0  0  0  0  0  0
    4.2690   -0.5223    0.0000 C   0  0  0  0  0  0  0  0  0  0  0  0
    4.2690   -2.5223    0.0000 C   0  0  0  0  0  0  0  0  0  0  0  0
    3.4030   -1.0223    0.0000 C   0  0  0  0  0  0  0  0  0  0  0  0
    3.4030   -2.0223    0.0000 C   0  0  0  0  0  0  0  0  0  0  0  0
    9.4757    2.5223    0.0000 C   0  0  0  0  0  0  0  0  0  0  0  0
    5.4641    0.7877    0.0000 H   0  0  0  0  0  0  0  0  0  0  0  0
   10.0688   -0.8552    0.0000 H   0  0  0  0  0  0  0  0  0  0  0  0
    5.6719   -2.3323    0.0000 H   0  0  0  0  0  0  0  0  0  0  0  0
    4.2690    0.0977    0.0000 H   0  0  0  0  0  0  0  0  0  0  0  0
    4.2690   -3.1423    0.0000 H   0  0  0  0  0  0  0  0  0  0  0  0
    2.8660   -0.7123    0.0000 H   0  0  0  0  0  0  0  0  0  0  0  0
    7.4040   -2.3323    0.0000 H   0  0  0  0  0  0  0  0  0  0  0  0
    9.1488   -2.3731    0.0000 H   0  0  0  0  0  0  0  0  0  0  0  0
    9.7918    1.9890    0.0000 H   0  0  0  0  0  0  0  0  0  0  0  0
   10.0090    2.8385    0.0000 H   0  0  0  0  0  0  0  0  0  0  0  0
    9.1595    3.0556    0.0000 H   0  0  0  0  0  0  0  0  0  0  0  0
    2.0000   -2.2123    0.0000 H   0  0  0  0  0  0  0  0  0  0  0  0
  1  9  1  0  0  0  0
  1 14  1  0  0  0  0
  2 10  1  0  0  0  0
  2 29  1  0  0  0  0
  3 13  1  0  0  0  0
  3 22  1  0  0  0  0
  4 12  1  0  0  0  0
  4 30  1  0  0  0  0
  5 16  2  0  0  0  0
  6 21  1  0  0  0  0
  6 34  1  0  0  0  0
  7  9  1  0  0  0  0
  7 10  2  0  0  0  0
  7 12  1  0  0  0  0
  8 10  1  0  0  0  0
  8 11  1  0  0  0  0
  8 14  2  0  0  0  0
  9 13  2  0  0  0  0
 11 17  2  0  0  0  0
 11 18  1  0  0  0  0
 12 15  2  0  0  0  0
 13 16  1  0  0  0  0
 14 23  1  0  0  0  0
 15 16  1  0  0  0  0
 15 24  1  0  0  0  0
 17 19  1  0  0  0  0
 17 25  1  0  0  0  0
 18 20  2  0  0  0  0
 18 26  1  0  0  0  0
 19 21  2  0  0  0  0
 19 27  1  0  0  0  0
 20 21  1  0  0  0  0
 20 28  1  0  0  0  0
 22 31  1  0  0  0  0
 22 32  1  0  0  0  0
 22 33  1  0  0  0  0
M  END
> <PUBCHEM_COMPOUND_CID>
4979

> <PUBCHEM_COMPOUND_CANONICALIZED>
1

> <PUBCHEM_CACTVS_COMPLEXITY>
629

> <PUBCHEM_CACTVS_HBOND_ACCEPTOR>
6

> <PUBCHEM_CACTVS_HBOND_DONOR>
3

> <PUBCHEM_CACTVS_ROTATABLE_BOND>
2

> <PUBCHEM_CACTVS_SUBSKEYS>
AAADccB4OAAAAAAAAAAAAAAAAAAAAAAAAAAwQIAAAAAAAACBAAAAGgAACAAADASgmAIyBoAABgCIAqBSAAICCAAgIAAIiABGCMgIJiKCMRaAcAAlwBEIuQeAwKAOIAAAAAAAAABAAAAAAAAAAAAAAAAAAA==

> <PUBCHEM_IUPAC_OPENEYE_NAME>
4,5-dihydroxy-3-(4-hydroxyphenyl)-8-methoxy-chromen-7-one

> <PUBCHEM_IUPAC_CAS_NAME>
4,5-dihydroxy-3-(4-hydroxyphenyl)-8-methoxy-1-benzopyran-7-one

> <PUBCHEM_IUPAC_NAME>
4,5-dihydroxy-3-(4-hydroxyphenyl)-8-methoxychromen-7-one

> <PUBCHEM_IUPAC_SYSTEMATIC_NAME>
3-(4-hydroxyphenyl)-8-methoxy-4,5-bis(oxidanyl)chromen-7-one

> <PUBCHEM_IUPAC_TRADITIONAL_NAME>
4,5-dihydroxy-3-(4-hydroxyphenyl)-8-methoxy-chromen-7-one

> <PUBCHEM_IUPAC_INCHI>
InChI=1S/C16H12O6/c1-21-15-12(19)6-11(18)13-14(20)10(7-22-16(13)15)8-2-4-9(17)5-3-8/h2-7,17-18,20H,1H3

> <PUBCHEM_IUPAC_INCHIKEY>
FIYMVGGLQAPYRK-UHFFFAOYSA-N

> <PUBCHEM_XLOGP3_AA>
1.3

> <PUBCHEM_EXACT_MASS>
300.063388

> <PUBCHEM_MOLECULAR_FORMULA>
C16H12O6

> <PUBCHEM_MOLECULAR_WEIGHT>
300.26288

> <PUBCHEM_OPENEYE_CAN_SMILES>
COC1=C2C(=C(C(=CO2)C3=CC=C(C=C3)O)O)C(=CC1=O)O

> <PUBCHEM_OPENEYE_ISO_SMILES>
COC1=C2C(=C(C(=CO2)C3=CC=C(C=C3)O)O)C(=CC1=O)O

> <PUBCHEM_CACTVS_TPSA>
96.2

> <PUBCHEM_MONOISOTOPIC_WEIGHT>
300.063388

> <PUBCHEM_TOTAL_CHARGE>
0

> <PUBCHEM_HEAVY_ATOM_COUNT>
22

> <PUBCHEM_ATOM_DEF_STEREO_COUNT>
0

> <PUBCHEM_ATOM_UDEF_STEREO_COUNT>
0

> <PUBCHEM_BOND_DEF_STEREO_COUNT>
0

> <PUBCHEM_BOND_UDEF_STEREO_COUNT>
0

> <PUBCHEM_ISOTOPIC_ATOM_COUNT>
0

> <PUBCHEM_COMPONENT_COUNT>
1

> <PUBCHEM_CACTVS_TAUTO_COUNT>
24

> <PUBCHEM_COORDINATE_TYPE>
1
5
255

> <PUBCHEM_BONDANNOTATIONS>
1  14  8
1  9  8
11  17  8
11  18  8
12  15  8
13  16  8
15  16  8
17  19  8
18  20  8
19  21  8
20  21  8
7  10  8
7  12  8
8  10  8
8  14  8
9  13  8

$$$$

