11376
  -OEChem-06261205362D

 18 19  0     0  0  0  0  0  0999 V2000
    2.5369   -1.0000    0.0000 O   0  0  0  0  0  0  0  0  0  0  0  0
    4.2690    1.0000    0.0000 N   0  0  0  0  0  0  0  0  0  0  0  0
    5.1350   -0.5000    0.0000 C   0  0  0  0  0  0  0  0  0  0  0  0
    5.1350    0.5000    0.0000 C   0  0  0  0  0  0  0  0  0  0  0  0
    4.2690   -1.0000    0.0000 C   0  0  0  0  0  0  0  0  0  0  0  0
    6.0290   -1.0347    0.0000 C   0  0  0  0  0  0  0  0  0  0  0  0
    6.0290    1.0347    0.0000 C   0  0  0  0  0  0  0  0  0  0  0  0
    3.4030   -0.5000    0.0000 C   0  0  0  0  0  0  0  0  0  0  0  0
    6.9350   -0.5208    0.0000 C   0  0  0  0  0  0  0  0  0  0  0  0
    6.9350    0.5208    0.0000 C   0  0  0  0  0  0  0  0  0  0  0  0
    3.4030    0.5000    0.0000 C   0  0  0  0  0  0  0  0  0  0  0  0
    4.2690   -1.6200    0.0000 H   0  0  0  0  0  0  0  0  0  0  0  0
    6.0218   -1.6546    0.0000 H   0  0  0  0  0  0  0  0  0  0  0  0
    6.0218    1.6546    0.0000 H   0  0  0  0  0  0  0  0  0  0  0  0
    7.4708   -0.8329    0.0000 H   0  0  0  0  0  0  0  0  0  0  0  0
    7.4708    0.8329    0.0000 H   0  0  0  0  0  0  0  0  0  0  0  0
    2.8660    0.8100    0.0000 H   0  0  0  0  0  0  0  0  0  0  0  0
    2.0000   -0.6900    0.0000 H   0  0  0  0  0  0  0  0  0  0  0  0
  1  8  1  0  0  0  0
  1 18  1  0  0  0  0
  2  4  1  0  0  0  0
  2 11  2  0  0  0  0
  3  4  1  0  0  0  0
  3  5  1  0  0  0  0
  3  6  2  0  0  0  0
  4  7  2  0  0  0  0
  5  8  2  0  0  0  0
  5 12  1  0  0  0  0
  6  9  1  0  0  0  0
  6 13  1  0  0  0  0
  7 10  1  0  0  0  0
  7 14  1  0  0  0  0
  8 11  1  0  0  0  0
  9 10  2  0  0  0  0
  9 15  1  0  0  0  0
 10 16  1  0  0  0  0
 11 17  1  0  0  0  0
M  END
> <PUBCHEM_COMPOUND_CID>
11376

> <PUBCHEM_COMPOUND_CANONICALIZED>
1

> <PUBCHEM_CACTVS_COMPLEXITY>
138

> <PUBCHEM_CACTVS_HBOND_ACCEPTOR>
2

> <PUBCHEM_CACTVS_HBOND_DONOR>
1

> <PUBCHEM_CACTVS_ROTATABLE_BOND>
0

> <PUBCHEM_CACTVS_SUBSKEYS>
AAADcYByIAAAAAAAAAAAAAAAAAAAAAAAAAA8QAAAAAAAAACx8AAAHgAACAAADAzBngQ8xvIIEgCgAzRnRASCgCAxYiAI2CA/bJgKJuLSkZOEcAhkwBHY2AewwKAOAAAAAAACAAAAAAAAAAQAAAAAAAAAAA==

> <PUBCHEM_IUPAC_OPENEYE_NAME>
quinolin-3-ol

> <PUBCHEM_IUPAC_CAS_NAME>
3-quinolinol

> <PUBCHEM_IUPAC_NAME>
quinolin-3-ol

> <PUBCHEM_IUPAC_SYSTEMATIC_NAME>
quinolin-3-ol

> <PUBCHEM_IUPAC_TRADITIONAL_NAME>
quinolin-3-ol

> <PUBCHEM_IUPAC_INCHI>
InChI=1S/C9H7NO/c11-8-5-7-3-1-2-4-9(7)10-6-8/h1-6,11H

> <PUBCHEM_IUPAC_INCHIKEY>
IQQDNMHUOLMLNJ-UHFFFAOYSA-N

> <PUBCHEM_XLOGP3>
2.1

> <PUBCHEM_EXACT_MASS>
145.052764

> <PUBCHEM_MOLECULAR_FORMULA>
C9H7NO

> <PUBCHEM_MOLECULAR_WEIGHT>
145.15798

> <PUBCHEM_OPENEYE_CAN_SMILES>
C1=CC=C2C(=C1)C=C(C=N2)O

> <PUBCHEM_OPENEYE_ISO_SMILES>
C1=CC=C2C(=C1)C=C(C=N2)O

> <PUBCHEM_CACTVS_TPSA>
33.1

> <PUBCHEM_MONOISOTOPIC_WEIGHT>
145.052764

> <PUBCHEM_TOTAL_CHARGE>
0

> <PUBCHEM_HEAVY_ATOM_COUNT>
11

> <PUBCHEM_ATOM_DEF_STEREO_COUNT>
0

> <PUBCHEM_ATOM_UDEF_STEREO_COUNT>
0

> <PUBCHEM_BOND_DEF_STEREO_COUNT>
0

> <PUBCHEM_BOND_UDEF_STEREO_COUNT>
0

> <PUBCHEM_ISOTOPIC_ATOM_COUNT>
0

> <PUBCHEM_COMPONENT_COUNT>
1

> <PUBCHEM_CACTVS_TAUTO_COUNT>
3

> <PUBCHEM_COORDINATE_TYPE>
1
5
255

> <PUBCHEM_BONDANNOTATIONS>
2  11  8
2  4  8
3  4  8
3  5  8
3  6  8
4  7  8
5  8  8
6  9  8
7  10  8
8  11  8
9  10  8

$$$$

