17396017
  -OEChem-06241222532D

 64 66  0     1  0  0  0  0  0999 V2000
    3.0000   -0.5000    0.0000 S   0  0  0  0  0  0  0  0  0  0  0  0
    2.0000   -0.5000    0.0000 O   0  0  0  0  0  0  0  0  0  0  0  0
    4.0000   -0.5000    0.0000 O   0  0  0  0  0  0  0  0  0  0  0  0
    4.7320    3.5000    0.0000 O   0  0  0  0  0  0  0  0  0  0  0  0
    3.0000    0.5000    0.0000 N   0  0  0  0  0  0  0  0  0  0  0  0
    3.0000    2.5000    0.0000 N   0  0  0  0  0  0  0  0  0  0  0  0
    3.8660    5.0000    0.0000 N   0  0  0  0  0  0  0  0  0  0  0  0
    3.0000   -4.5000    0.0000 C   0  0  0  0  0  0  0  0  0  0  0  0
    2.1340   -5.0000    0.0000 C   0  0  0  0  0  0  0  0  0  0  0  0
    3.8660   -5.0000    0.0000 C   0  0  0  0  0  0  0  0  0  0  0  0
    2.1340   -6.0000    0.0000 C   0  0  0  0  0  0  0  0  0  0  0  0
    3.8660   -6.0000    0.0000 C   0  0  0  0  0  0  0  0  0  0  0  0
    3.0000   -6.5000    0.0000 C   0  0  0  0  0  0  0  0  0  0  0  0
    2.1340    2.0000    0.0000 C   0  0  0  0  0  0  0  0  0  0  0  0
    3.8660    2.0000    0.0000 C   0  0  0  0  0  0  0  0  0  0  0  0
    2.1340    1.0000    0.0000 C   0  0  0  0  0  0  0  0  0  0  0  0
    3.8660    1.0000    0.0000 C   0  0  0  0  0  0  0  0  0  0  0  0
    3.0000   -3.5000    0.0000 C   0  0  0  0  0  0  0  0  0  0  0  0
    3.0000    3.5000    0.0000 C   0  0  3  0  0  0  0  0  0  0  0  0
    3.0000   -1.5000    0.0000 C   0  0  0  0  0  0  0  0  0  0  0  0
    3.8660   -3.0000    0.0000 C   0  0  0  0  0  0  0  0  0  0  0  0
    2.1340   -3.0000    0.0000 C   0  0  0  0  0  0  0  0  0  0  0  0
    3.8660   -2.0000    0.0000 C   0  0  0  0  0  0  0  0  0  0  0  0
    2.1340   -2.0000    0.0000 C   0  0  0  0  0  0  0  0  0  0  0  0
    2.1340    4.0000    0.0000 C   0  0  0  0  0  0  0  0  0  0  0  0
    3.8660    4.0000    0.0000 C   0  0  0  0  0  0  0  0  0  0  0  0
    4.7320    5.5000    0.0000 C   0  0  0  0  0  0  0  0  0  0  0  0
    4.7320    6.5000    0.0000 C   0  0  0  0  0  0  0  0  0  0  0  0
    5.5981    5.0000    0.0000 C   0  0  0  0  0  0  0  0  0  0  0  0
    3.5369   -4.1900    0.0000 H   0  0  0  0  0  0  0  0  0  0  0  0
    1.9219   -4.4174    0.0000 H   0  0  0  0  0  0  0  0  0  0  0  0
    1.5234   -5.1077    0.0000 H   0  0  0  0  0  0  0  0  0  0  0  0
    4.4766   -5.1077    0.0000 H   0  0  0  0  0  0  0  0  0  0  0  0
    4.0781   -4.4174    0.0000 H   0  0  0  0  0  0  0  0  0  0  0  0
    1.5234   -5.8923    0.0000 H   0  0  0  0  0  0  0  0  0  0  0  0
    1.9219   -6.5826    0.0000 H   0  0  0  0  0  0  0  0  0  0  0  0
    4.0781   -6.5826    0.0000 H   0  0  0  0  0  0  0  0  0  0  0  0
    4.4766   -5.8923    0.0000 H   0  0  0  0  0  0  0  0  0  0  0  0
    2.6015   -6.9750    0.0000 H   0  0  0  0  0  0  0  0  0  0  0  0
    3.3985   -6.9750    0.0000 H   0  0  0  0  0  0  0  0  0  0  0  0
    1.9219    2.5826    0.0000 H   0  0  0  0  0  0  0  0  0  0  0  0
    1.5234    1.8923    0.0000 H   0  0  0  0  0  0  0  0  0  0  0  0
    4.4766    1.8923    0.0000 H   0  0  0  0  0  0  0  0  0  0  0  0
    4.0781    2.5826    0.0000 H   0  0  0  0  0  0  0  0  0  0  0  0
    1.5234    1.1077    0.0000 H   0  0  0  0  0  0  0  0  0  0  0  0
    1.9219    0.4174    0.0000 H   0  0  0  0  0  0  0  0  0  0  0  0
    4.0781    0.4174    0.0000 H   0  0  0  0  0  0  0  0  0  0  0  0
    4.4766    1.1077    0.0000 H   0  0  0  0  0  0  0  0  0  0  0  0
    2.4631    3.1900    0.0000 H   0  0  0  0  0  0  0  0  0  0  0  0
    4.4030   -3.3100    0.0000 H   0  0  0  0  0  0  0  0  0  0  0  0
    1.5970   -3.3100    0.0000 H   0  0  0  0  0  0  0  0  0  0  0  0
    4.4030   -1.6900    0.0000 H   0  0  0  0  0  0  0  0  0  0  0  0
    1.5970   -1.6900    0.0000 H   0  0  0  0  0  0  0  0  0  0  0  0
    2.4440    4.5369    0.0000 H   0  0  0  0  0  0  0  0  0  0  0  0
    1.5970    4.3100    0.0000 H   0  0  0  0  0  0  0  0  0  0  0  0
    1.8240    3.4631    0.0000 H   0  0  0  0  0  0  0  0  0  0  0  0
    3.3291    5.3100    0.0000 H   0  0  0  0  0  0  0  0  0  0  0  0
    4.7320    4.8800    0.0000 H   0  0  0  0  0  0  0  0  0  0  0  0
    5.3520    6.5000    0.0000 H   0  0  0  0  0  0  0  0  0  0  0  0
    5.2881    4.4631    0.0000 H   0  0  0  0  0  0  0  0  0  0  0  0
    4.7320    7.1200    0.0000 H   0  0  0  0  0  0  0  0  0  0  0  0
    4.1120    6.5000    0.0000 H   0  0  0  0  0  0  0  0  0  0  0  0
    6.1350    4.6900    0.0000 H   0  0  0  0  0  0  0  0  0  0  0  0
    5.9081    5.5369    0.0000 H   0  0  0  0  0  0  0  0  0  0  0  0
  1  2  2  0  0  0  0
  1  3  2  0  0  0  0
  1  5  1  0  0  0  0
  1 20  1  0  0  0  0
  4 26  2  0  0  0  0
  5 16  1  0  0  0  0
  5 17  1  0  0  0  0
  6 14  1  0  0  0  0
  6 15  1  0  0  0  0
  6 19  1  0  0  0  0
  7 26  1  0  0  0  0
  7 27  1  0  0  0  0
  7 57  1  0  0  0  0
  8  9  1  0  0  0  0
  8 10  1  0  0  0  0
  8 18  1  0  0  0  0
  8 30  1  0  0  0  0
  9 11  1  0  0  0  0
  9 31  1  0  0  0  0
  9 32  1  0  0  0  0
 10 12  1  0  0  0  0
 10 33  1  0  0  0  0
 10 34  1  0  0  0  0
 11 13  1  0  0  0  0
 11 35  1  0  0  0  0
 11 36  1  0  0  0  0
 12 13  1  0  0  0  0
 12 37  1  0  0  0  0
 12 38  1  0  0  0  0
 13 39  1  0  0  0  0
 13 40  1  0  0  0  0
 14 16  1  0  0  0  0
 14 41  1  0  0  0  0
 14 42  1  0  0  0  0
 15 17  1  0  0  0  0
 15 43  1  0  0  0  0
 15 44  1  0  0  0  0
 16 45  1  0  0  0  0
 16 46  1  0  0  0  0
 17 47  1  0  0  0  0
 17 48  1  0  0  0  0
 18 21  2  0  0  0  0
 18 22  1  0  0  0  0
 19 25  1  0  0  0  0
 19 26  1  0  0  0  0
 19 49  1  0  0  0  0
 20 23  2  0  0  0  0
 20 24  1  0  0  0  0
 21 23  1  0  0  0  0
 21 50  1  0  0  0  0
 22 24  2  0  0  0  0
 22 51  1  0  0  0  0
 23 52  1  0  0  0  0
 24 53  1  0  0  0  0
 25 54  1  0  0  0  0
 25 55  1  0  0  0  0
 25 56  1  0  0  0  0
 27 28  1  0  0  0  0
 27 29  1  0  0  0  0
 27 58  1  0  0  0  0
 28 59  1  0  0  0  0
 28 61  1  0  0  0  0
 28 62  1  0  0  0  0
 29 60  1  0  0  0  0
 29 63  1  0  0  0  0
 29 64  1  0  0  0  0
M  END
> <PUBCHEM_COMPOUND_CID>
17396017

> <PUBCHEM_COMPOUND_CANONICALIZED>
1

> <PUBCHEM_CACTVS_COMPLEXITY>
624

> <PUBCHEM_CACTVS_HBOND_ACCEPTOR>
5

> <PUBCHEM_CACTVS_HBOND_DONOR>
1

> <PUBCHEM_CACTVS_ROTATABLE_BOND>
6

> <PUBCHEM_CACTVS_SUBSKEYS>
AAADcfB7MABAAAAAAAAAAAAAAAAAAAAAAAA8YIAAAAAAAAABAAAAHgQQQAAADSjB2AQyAYPAAAKIAiFSEHBCABAgAAAIiJmIAIgIYCKAETCUIAAglgCIiAcAgMAOkAAAAAAAAAAgAAAAAAAAAAAAAAAAAA==

> <PUBCHEM_IUPAC_OPENEYE_NAME>
2-[4-(4-cyclohexylphenyl)sulfonylpiperazin-1-yl]-N-isopropyl-propanamide

> <PUBCHEM_IUPAC_CAS_NAME>
2-[4-(4-cyclohexylphenyl)sulfonyl-1-piperazinyl]-N-propan-2-ylpropanamide

> <PUBCHEM_IUPAC_NAME>
2-[4-(4-cyclohexylphenyl)sulfonylpiperazin-1-yl]-N-propan-2-ylpropanamide

> <PUBCHEM_IUPAC_SYSTEMATIC_NAME>
2-[4-(4-cyclohexylphenyl)sulfonylpiperazin-1-yl]-N-propan-2-yl-propanamide

> <PUBCHEM_IUPAC_TRADITIONAL_NAME>
2-[4-(4-cyclohexylphenyl)sulfonylpiperazino]-N-isopropyl-propionamide

> <PUBCHEM_IUPAC_INCHI>
InChI=1S/C22H35N3O3S/c1-17(2)23-22(26)18(3)24-13-15-25(16-14-24)29(27,28)21-11-9-20(10-12-21)19-7-5-4-6-8-19/h9-12,17-19H,4-8,13-16H2,1-3H3,(H,23,26)

> <PUBCHEM_IUPAC_INCHIKEY>
YPFMZJAGYAGCHF-UHFFFAOYSA-N

> <PUBCHEM_XLOGP3_AA>
4

> <PUBCHEM_EXACT_MASS>
421.239913

> <PUBCHEM_MOLECULAR_FORMULA>
C22H35N3O3S

> <PUBCHEM_MOLECULAR_WEIGHT>
421.5966

> <PUBCHEM_OPENEYE_CAN_SMILES>
CC(C)NC(=O)C(C)N1CCN(CC1)S(=O)(=O)C2=CC=C(C=C2)C3CCCCC3

> <PUBCHEM_OPENEYE_ISO_SMILES>
CC(C)NC(=O)C(C)N1CCN(CC1)S(=O)(=O)C2=CC=C(C=C2)C3CCCCC3

> <PUBCHEM_CACTVS_TPSA>
78.1

> <PUBCHEM_MONOISOTOPIC_WEIGHT>
421.239913

> <PUBCHEM_TOTAL_CHARGE>
0

> <PUBCHEM_HEAVY_ATOM_COUNT>
29

> <PUBCHEM_ATOM_DEF_STEREO_COUNT>
0

> <PUBCHEM_ATOM_UDEF_STEREO_COUNT>
1

> <PUBCHEM_BOND_DEF_STEREO_COUNT>
0

> <PUBCHEM_BOND_UDEF_STEREO_COUNT>
0

> <PUBCHEM_ISOTOPIC_ATOM_COUNT>
0

> <PUBCHEM_COMPONENT_COUNT>
1

> <PUBCHEM_CACTVS_TAUTO_COUNT>
2

> <PUBCHEM_COORDINATE_TYPE>
1
5
255

> <PUBCHEM_BONDANNOTATIONS>
18  21  8
18  22  8
19  25  3
20  23  8
20  24  8
21  23  8
22  24  8

$$$$

