12353
  -OEChem-06261206513D

 17 16  0     0  0  0  0  0  0999 V2000
   -3.9787   -0.4991    0.0014 Cl  0  0  0  0  0  0  0  0  0  0  0  0
    3.9943   -0.4984    0.0005 Cl  0  0  0  0  0  0  0  0  0  0  0  0
   -0.0131    0.5558   -0.0141 C   0  0  0  0  0  0  0  0  0  0  0  0
   -1.2693   -0.3189   -0.0072 C   0  0  0  0  0  0  0  0  0  0  0  0
    1.2574   -0.2995    0.0046 C   0  0  0  0  0  0  0  0  0  0  0  0
   -2.5310    0.5342    0.0097 C   0  0  0  0  0  0  0  0  0  0  0  0
    2.5404    0.5259    0.0051 C   0  0  0  0  0  0  0  0  0  0  0  0
   -0.0122    1.1949   -0.9053 H   0  0  0  0  0  0  0  0  0  0  0  0
   -0.0190    1.2179    0.8601 H   0  0  0  0  0  0  0  0  0  0  0  0
   -1.2679   -0.9657   -0.8932 H   0  0  0  0  0  0  0  0  0  0  0  0
   -1.2540   -0.9746    0.8722 H   0  0  0  0  0  0  0  0  0  0  0  0
    1.2545   -0.9630   -0.8696 H   0  0  0  0  0  0  0  0  0  0  0  0
    1.2435   -0.9453    0.8917 H   0  0  0  0  0  0  0  0  0  0  0  0
   -2.5812    1.1827   -0.8701 H   0  0  0  0  0  0  0  0  0  0  0  0
   -2.5736    1.1592    0.9068 H   0  0  0  0  0  0  0  0  0  0  0  0
    2.5896    1.1640    0.8927 H   0  0  0  0  0  0  0  0  0  0  0  0
    2.5883    1.1668   -0.8807 H   0  0  0  0  0  0  0  0  0  0  0  0
  1  6  1  0  0  0  0
  2  7  1  0  0  0  0
  3  4  1  0  0  0  0
  3  5  1  0  0  0  0
  3  8  1  0  0  0  0
  3  9  1  0  0  0  0
  4  6  1  0  0  0  0
  4 10  1  0  0  0  0
  4 11  1  0  0  0  0
  5  7  1  0  0  0  0
  5 12  1  0  0  0  0
  5 13  1  0  0  0  0
  6 14  1  0  0  0  0
  6 15  1  0  0  0  0
  7 16  1  0  0  0  0
  7 17  1  0  0  0  0
M  END
> <PUBCHEM_COMPOUND_CID>
12353

> <PUBCHEM_CONFORMER_RMSD>
0.6

> <PUBCHEM_CONFORMER_DIVERSEORDER>
2
14
20
19
21
5
3
16
9
11
18
1
17
4
10
8
12
6
7
15
13

> <PUBCHEM_MMFF94_PARTIAL_CHARGES>
4
1 -0.29
2 -0.29
6 0.29
7 0.29

> <PUBCHEM_EFFECTIVE_ROTOR_COUNT>
4

> <PUBCHEM_PHARMACOPHORE_FEATURES>
0

> <PUBCHEM_HEAVY_ATOM_COUNT>
7

> <PUBCHEM_ATOM_DEF_STEREO_COUNT>
0

> <PUBCHEM_ATOM_UDEF_STEREO_COUNT>
0

> <PUBCHEM_BOND_DEF_STEREO_COUNT>
0

> <PUBCHEM_BOND_UDEF_STEREO_COUNT>
0

> <PUBCHEM_ISOTOPIC_ATOM_COUNT>
0

> <PUBCHEM_COMPONENT_COUNT>
1

> <PUBCHEM_CACTVS_TAUTO_COUNT>
1

> <PUBCHEM_CONFORMER_ID>
0000304100000002

> <PUBCHEM_MMFF94_ENERGY>
-0.0829

> <PUBCHEM_FEATURE_SELFOVERLAP>
0

> <PUBCHEM_SHAPE_FINGERPRINT>
11062470 55 18410855460128194273
14325111 11 18410575088958059201
18342897 14 8574713502818144111
20211469 26 18342176665601957861
20719005 15 18410575084684288355
21293036 1 14692568818973483294
5460574 1 9223232944613279393

> <PUBCHEM_SHAPE_MULTIPOLES>
147.8
7.69
0.85
0.63
0.13
0.01
0
-1.51
0.02
-0.01
0
0
-0.01
0

> <PUBCHEM_SHAPE_SELFOVERLAP>
239.04

> <PUBCHEM_SHAPE_VOLUME>
102.9

> <PUBCHEM_COORDINATE_TYPE>
2
5
10

$$$$

