11394
  -OEChem-06261205372D

 25 26  0     0  0  0  0  0  0999 V2000
    2.8660    0.7927    0.0000 O   0  0  0  0  0  0  0  0  0  0  0  0
    3.7320   -0.7073    0.0000 N   0  0  0  0  0  0  0  0  0  0  0  0
    6.3301   -0.2073    0.0000 C   0  0  0  0  0  0  0  0  0  0  0  0
    6.3301    0.7927    0.0000 C   0  0  0  0  0  0  0  0  0  0  0  0
    4.5981   -0.2073    0.0000 C   0  0  0  0  0  0  0  0  0  0  0  0
    5.4641   -0.7073    0.0000 C   0  0  0  0  0  0  0  0  0  0  0  0
    5.4641    1.2927    0.0000 C   0  0  0  0  0  0  0  0  0  0  0  0
    4.5981    0.7927    0.0000 C   0  0  0  0  0  0  0  0  0  0  0  0
    7.2241   -0.7420    0.0000 C   0  0  0  0  0  0  0  0  0  0  0  0
    7.2241    1.3273    0.0000 C   0  0  0  0  0  0  0  0  0  0  0  0
    8.1301   -0.2281    0.0000 C   0  0  0  0  0  0  0  0  0  0  0  0
    8.1301    0.8135    0.0000 C   0  0  0  0  0  0  0  0  0  0  0  0
    2.8660   -0.2073    0.0000 C   0  0  0  0  0  0  0  0  0  0  0  0
    2.0000   -0.7073    0.0000 C   0  0  0  0  0  0  0  0  0  0  0  0
    5.4641   -1.3273    0.0000 H   0  0  0  0  0  0  0  0  0  0  0  0
    5.4641    1.9127    0.0000 H   0  0  0  0  0  0  0  0  0  0  0  0
    4.0611    1.1027    0.0000 H   0  0  0  0  0  0  0  0  0  0  0  0
    7.2169   -1.3620    0.0000 H   0  0  0  0  0  0  0  0  0  0  0  0
    7.2169    1.9473    0.0000 H   0  0  0  0  0  0  0  0  0  0  0  0
    3.7320   -1.3273    0.0000 H   0  0  0  0  0  0  0  0  0  0  0  0
    8.6659   -0.5402    0.0000 H   0  0  0  0  0  0  0  0  0  0  0  0
    8.6659    1.1256    0.0000 H   0  0  0  0  0  0  0  0  0  0  0  0
    1.6900   -0.1704    0.0000 H   0  0  0  0  0  0  0  0  0  0  0  0
    1.4631   -1.0173    0.0000 H   0  0  0  0  0  0  0  0  0  0  0  0
    2.3100   -1.2443    0.0000 H   0  0  0  0  0  0  0  0  0  0  0  0
  1 13  2  0  0  0  0
  2  5  1  0  0  0  0
  2 13  1  0  0  0  0
  2 20  1  0  0  0  0
  3  4  1  0  0  0  0
  3  6  1  0  0  0  0
  3  9  2  0  0  0  0
  4  7  1  0  0  0  0
  4 10  2  0  0  0  0
  5  6  2  0  0  0  0
  5  8  1  0  0  0  0
  6 15  1  0  0  0  0
  7  8  2  0  0  0  0
  7 16  1  0  0  0  0
  8 17  1  0  0  0  0
  9 11  1  0  0  0  0
  9 18  1  0  0  0  0
 10 12  1  0  0  0  0
 10 19  1  0  0  0  0
 11 12  2  0  0  0  0
 11 21  1  0  0  0  0
 12 22  1  0  0  0  0
 13 14  1  0  0  0  0
 14 23  1  0  0  0  0
 14 24  1  0  0  0  0
 14 25  1  0  0  0  0
M  END
> <PUBCHEM_COMPOUND_CID>
11394

> <PUBCHEM_COMPOUND_CANONICALIZED>
1

> <PUBCHEM_CACTVS_COMPLEXITY>
214

> <PUBCHEM_CACTVS_HBOND_ACCEPTOR>
1

> <PUBCHEM_CACTVS_HBOND_DONOR>
1

> <PUBCHEM_CACTVS_ROTATABLE_BOND>
1

> <PUBCHEM_CACTVS_SUBSKEYS>
AAADccByIAAAAAAAAAAAAAAAAAAAAAAAAAAwYAAAAAAAAADBUAAAHgAQAAAADAiBmAAywMLAAACIAiVSUACCAAAhAgAIiAAAZIgIICLAkZGEIAhglADIyAcQgIAOiAAAQAAQAAAQAACAACAAAAAAAAAAAA==

> <PUBCHEM_IUPAC_OPENEYE_NAME>
N-(2-naphthyl)acetamide

> <PUBCHEM_IUPAC_CAS_NAME>
N-(2-naphthalenyl)acetamide

> <PUBCHEM_IUPAC_NAME>
N-naphthalen-2-ylacetamide

> <PUBCHEM_IUPAC_SYSTEMATIC_NAME>
N-naphthalen-2-ylethanamide

> <PUBCHEM_IUPAC_TRADITIONAL_NAME>
N-(2-naphthyl)acetamide

> <PUBCHEM_IUPAC_INCHI>
InChI=1S/C12H11NO/c1-9(14)13-12-7-6-10-4-2-3-5-11(10)8-12/h2-8H,1H3,(H,13,14)

> <PUBCHEM_IUPAC_INCHIKEY>
DIEOESIZLAHURK-UHFFFAOYSA-N

> <PUBCHEM_XLOGP3>
2.7

> <PUBCHEM_EXACT_MASS>
185.084064

> <PUBCHEM_MOLECULAR_FORMULA>
C12H11NO

> <PUBCHEM_MOLECULAR_WEIGHT>
185.22184

> <PUBCHEM_OPENEYE_CAN_SMILES>
CC(=O)NC1=CC2=CC=CC=C2C=C1

> <PUBCHEM_OPENEYE_ISO_SMILES>
CC(=O)NC1=CC2=CC=CC=C2C=C1

> <PUBCHEM_CACTVS_TPSA>
29.1

> <PUBCHEM_MONOISOTOPIC_WEIGHT>
185.084064

> <PUBCHEM_TOTAL_CHARGE>
0

> <PUBCHEM_HEAVY_ATOM_COUNT>
14

> <PUBCHEM_ATOM_DEF_STEREO_COUNT>
0

> <PUBCHEM_ATOM_UDEF_STEREO_COUNT>
0

> <PUBCHEM_BOND_DEF_STEREO_COUNT>
0

> <PUBCHEM_BOND_UDEF_STEREO_COUNT>
0

> <PUBCHEM_ISOTOPIC_ATOM_COUNT>
0

> <PUBCHEM_COMPONENT_COUNT>
1

> <PUBCHEM_CACTVS_TAUTO_COUNT>
3

> <PUBCHEM_COORDINATE_TYPE>
1
5
255

> <PUBCHEM_BONDANNOTATIONS>
10  12  8
11  12  8
3  4  8
3  6  8
3  9  8
4  10  8
4  7  8
5  6  8
5  8  8
7  8  8
9  11  8

$$$$

