9533
  -OEChem-06261203473D

 16 15  0     0  0  0  0  0  0999 V2000
    3.9273    0.4576   -0.0039 Cl  0  0  0  0  0  0  0  0  0  0  0  0
   -3.9309    0.4538    0.0039 Cl  0  0  0  0  0  0  0  0  0  0  0  0
    0.0068   -0.4911    0.0000 N   0  0  0  0  0  0  0  0  0  0  0  0
    1.1985    0.3248    0.0003 C   0  0  0  0  0  0  0  0  0  0  0  0
   -1.2016    0.3302   -0.0003 C   0  0  0  0  0  0  0  0  0  0  0  0
    2.4504   -0.5382    0.0061 C   0  0  0  0  0  0  0  0  0  0  0  0
   -2.4506   -0.5371   -0.0062 C   0  0  0  0  0  0  0  0  0  0  0  0
    1.2127    0.9744   -0.8840 H   0  0  0  0  0  0  0  0  0  0  0  0
    1.2087    0.9730    0.8855 H   0  0  0  0  0  0  0  0  0  0  0  0
   -1.2123    0.9706    0.8903 H   0  0  0  0  0  0  0  0  0  0  0  0
   -1.2094    0.9838   -0.8815 H   0  0  0  0  0  0  0  0  0  0  0  0
    0.0039   -1.1067   -0.8127 H   0  0  0  0  0  0  0  0  0  0  0  0
    2.4898   -1.1715    0.8983 H   0  0  0  0  0  0  0  0  0  0  0  0
    2.4898   -1.1851   -0.8763 H   0  0  0  0  0  0  0  0  0  0  0  0
   -2.4886   -1.1700   -0.8986 H   0  0  0  0  0  0  0  0  0  0  0  0
   -2.4856   -1.1846    0.8758 H   0  0  0  0  0  0  0  0  0  0  0  0
  1  6  1  0  0  0  0
  2  7  1  0  0  0  0
  3  4  1  0  0  0  0
  3  5  1  0  0  0  0
  3 12  1  0  0  0  0
  4  6  1  0  0  0  0
  4  8  1  0  0  0  0
  4  9  1  0  0  0  0
  5  7  1  0  0  0  0
  5 10  1  0  0  0  0
  5 11  1  0  0  0  0
  6 13  1  0  0  0  0
  6 14  1  0  0  0  0
  7 15  1  0  0  0  0
  7 16  1  0  0  0  0
M  END
> <PUBCHEM_COMPOUND_CID>
9533

> <PUBCHEM_CONFORMER_RMSD>
0.6

> <PUBCHEM_CONFORMER_DIVERSEORDER>
1
14
12
18
11
3
19
5
8
16
15
17
2
9
20
10
4
6
13
7

> <PUBCHEM_MMFF94_PARTIAL_CHARGES>
8
1 -0.29
12 0.36
2 -0.29
3 -0.9
4 0.27
5 0.27
6 0.29
7 0.29

> <PUBCHEM_EFFECTIVE_ROTOR_COUNT>
4

> <PUBCHEM_PHARMACOPHORE_FEATURES>
2
1 3 cation
1 3 donor

> <PUBCHEM_HEAVY_ATOM_COUNT>
7

> <PUBCHEM_ATOM_DEF_STEREO_COUNT>
0

> <PUBCHEM_ATOM_UDEF_STEREO_COUNT>
0

> <PUBCHEM_BOND_DEF_STEREO_COUNT>
0

> <PUBCHEM_BOND_UDEF_STEREO_COUNT>
0

> <PUBCHEM_ISOTOPIC_ATOM_COUNT>
0

> <PUBCHEM_COMPONENT_COUNT>
1

> <PUBCHEM_CACTVS_TAUTO_COUNT>
1

> <PUBCHEM_CONFORMER_ID>
0000253D00000001

> <PUBCHEM_MMFF94_ENERGY>
-2.9268

> <PUBCHEM_FEATURE_SELFOVERLAP>
10.148

> <PUBCHEM_SHAPE_FINGERPRINT>
11062470 55 18410855464428429825
14325111 11 18410856563940207010
20211469 26 7925912573693580889
20719005 15 18411136926747085419
5460574 1 9223232948908227202

> <PUBCHEM_SHAPE_MULTIPOLES>
142.82
7.62
0.82
0.62
0.02
0
0
-1.22
0
0
0
0
-0.01
0

> <PUBCHEM_SHAPE_SELFOVERLAP>
230.487

> <PUBCHEM_SHAPE_VOLUME>
99.7

> <PUBCHEM_COORDINATE_TYPE>
2
5
10

$$$$

