854299
  -OEChem-06241222473D

 36 37  0     0  0  0  0  0  0999 V2000
    4.3705   -1.9319   -0.5464 O   0  0  0  0  0  0  0  0  0  0  0  0
   -1.3043    1.8869   -1.3181 O   0  0  0  0  0  0  0  0  0  0  0  0
   -0.2863    2.1474    0.7519 N   0  0  0  0  0  0  0  0  0  0  0  0
    1.0153    2.5319    0.2581 C   0  0  0  0  0  0  0  0  0  0  0  0
    1.9083    1.3442    0.0441 C   0  0  0  0  0  0  0  0  0  0  0  0
   -2.6030    1.4735    0.6834 C   0  0  0  0  0  0  0  0  0  0  0  0
   -3.1028    0.1005    0.3846 C   0  0  0  0  0  0  0  0  0  0  0  0
   -1.3488    1.8539   -0.0909 C   0  0  0  0  0  0  0  0  0  0  0  0
    1.9152    0.7030   -1.1888 C   0  0  0  0  0  0  0  0  0  0  0  0
    2.7188    0.8981    1.0812 C   0  0  0  0  0  0  0  0  0  0  0  0
    2.7448   -0.4006   -1.3876 C   0  0  0  0  0  0  0  0  0  0  0  0
    3.5485   -0.2055    0.8825 C   0  0  0  0  0  0  0  0  0  0  0  0
   -4.0208   -0.0985   -0.6467 C   0  0  0  0  0  0  0  0  0  0  0  0
   -2.6519   -0.9850    1.1359 C   0  0  0  0  0  0  0  0  0  0  0  0
    3.5615   -0.8549   -0.3520 C   0  0  0  0  0  0  0  0  0  0  0  0
   -4.4882   -1.3826   -0.9264 C   0  0  0  0  0  0  0  0  0  0  0  0
   -3.1192   -2.2692    0.8559 C   0  0  0  0  0  0  0  0  0  0  0  0
   -4.0373   -2.4678   -0.1752 C   0  0  0  0  0  0  0  0  0  0  0  0
    5.1797   -2.3434    0.5545 C   0  0  0  0  0  0  0  0  0  0  0  0
    1.4556    3.2177    0.9911 H   0  0  0  0  0  0  0  0  0  0  0  0
    0.9010    3.0975   -0.6745 H   0  0  0  0  0  0  0  0  0  0  0  0
   -3.3706    2.2185    0.4360 H   0  0  0  0  0  0  0  0  0  0  0  0
   -2.4456    1.5791    1.7640 H   0  0  0  0  0  0  0  0  0  0  0  0
   -0.4030    2.0720    1.7579 H   0  0  0  0  0  0  0  0  0  0  0  0
    1.2871    1.0483   -2.0049 H   0  0  0  0  0  0  0  0  0  0  0  0
    2.7143    1.3960    2.0470 H   0  0  0  0  0  0  0  0  0  0  0  0
    2.7511   -0.9020   -2.3515 H   0  0  0  0  0  0  0  0  0  0  0  0
    4.1563   -0.5057    1.7292 H   0  0  0  0  0  0  0  0  0  0  0  0
   -4.3786    0.7383   -1.2408 H   0  0  0  0  0  0  0  0  0  0  0  0
   -1.9348   -0.8432    1.9402 H   0  0  0  0  0  0  0  0  0  0  0  0
   -5.2026   -1.5376   -1.7297 H   0  0  0  0  0  0  0  0  0  0  0  0
   -2.7676   -3.1145    1.4402 H   0  0  0  0  0  0  0  0  0  0  0  0
   -4.4009   -3.4677   -0.3933 H   0  0  0  0  0  0  0  0  0  0  0  0
    4.5688   -2.6707    1.4026 H   0  0  0  0  0  0  0  0  0  0  0  0
    5.8999   -1.5679    0.8365 H   0  0  0  0  0  0  0  0  0  0  0  0
    5.7583   -3.2120    0.2234 H   0  0  0  0  0  0  0  0  0  0  0  0
  1 15  1  0  0  0  0
  1 19  1  0  0  0  0
  2  8  2  0  0  0  0
  3  4  1  0  0  0  0
  3  8  1  0  0  0  0
  3 24  1  0  0  0  0
  4  5  1  0  0  0  0
  4 20  1  0  0  0  0
  4 21  1  0  0  0  0
  5  9  2  0  0  0  0
  5 10  1  0  0  0  0
  6  7  1  0  0  0  0
  6  8  1  0  0  0  0
  6 22  1  0  0  0  0
  6 23  1  0  0  0  0
  7 13  2  0  0  0  0
  7 14  1  0  0  0  0
  9 11  1  0  0  0  0
  9 25  1  0  0  0  0
 10 12  2  0  0  0  0
 10 26  1  0  0  0  0
 11 15  2  0  0  0  0
 11 27  1  0  0  0  0
 12 15  1  0  0  0  0
 12 28  1  0  0  0  0
 13 16  1  0  0  0  0
 13 29  1  0  0  0  0
 14 17  2  0  0  0  0
 14 30  1  0  0  0  0
 16 18  2  0  0  0  0
 16 31  1  0  0  0  0
 17 18  1  0  0  0  0
 17 32  1  0  0  0  0
 18 33  1  0  0  0  0
 19 34  1  0  0  0  0
 19 35  1  0  0  0  0
 19 36  1  0  0  0  0
M  END
> <PUBCHEM_COMPOUND_CID>
854299

> <PUBCHEM_CONFORMER_RMSD>
0.8

> <PUBCHEM_CONFORMER_DIVERSEORDER>
2
38
33
32
4
17
37
14
18
6
1
34
39
15
21
36
22
29
26
11
24
40
8
9
3
12
10
25
27
16
28
35
5
20
23
30
31
7
19
13

> <PUBCHEM_MMFF94_PARTIAL_CHARGES>
29
1 -0.36
10 -0.15
11 -0.15
12 -0.15
13 -0.15
14 -0.15
15 0.08
16 -0.15
17 -0.15
18 -0.15
19 0.28
2 -0.57
24 0.37
25 0.15
26 0.15
27 0.15
28 0.15
29 0.15
3 -0.73
30 0.15
31 0.15
32 0.15
33 0.15
4 0.44
5 -0.14
6 0.2
7 -0.14
8 0.57
9 -0.15

> <PUBCHEM_EFFECTIVE_ROTOR_COUNT>
6

> <PUBCHEM_PHARMACOPHORE_FEATURES>
5
1 1 acceptor
1 2 acceptor
1 3 donor
6 5 9 10 11 12 15 rings
6 7 13 14 16 17 18 rings

> <PUBCHEM_HEAVY_ATOM_COUNT>
19

> <PUBCHEM_ATOM_DEF_STEREO_COUNT>
0

> <PUBCHEM_ATOM_UDEF_STEREO_COUNT>
0

> <PUBCHEM_BOND_DEF_STEREO_COUNT>
0

> <PUBCHEM_BOND_UDEF_STEREO_COUNT>
0

> <PUBCHEM_ISOTOPIC_ATOM_COUNT>
0

> <PUBCHEM_COMPONENT_COUNT>
1

> <PUBCHEM_CACTVS_TAUTO_COUNT>
2

> <PUBCHEM_CONFORMER_ID>
000D091B00000002

> <PUBCHEM_MMFF94_ENERGY>
51.7793

> <PUBCHEM_FEATURE_SELFOVERLAP>
25.371

> <PUBCHEM_SHAPE_FINGERPRINT>
10498660 4 9799696982545754331
10670039 82 8934703514505767250
10968037 57 18334852823081732235
117890 22 18261950760931650375
12363563 72 18409161087129937225
12596599 1 17895737565598502043
12633257 1 18115570656312181761
14251731 5 18409725145079594843
14341114 328 14345799292591781987
14848160 33 18262797342098966775
14848178 5 18412553101855403246
14848178 96 10015598185197916995
14866123 147 18264767834972598089
15342168 16 10303549303150854387
15352361 1 18409450284368337770
1798214 55 9439411224058413875
18186145 218 11959465469741820245
20281475 54 18410566271559492781
20403669 9 18334855030420732791
20621476 91 18339379543024407994
20645477 70 18195815059528192617
20681677 274 18334016107612829928
21864079 5 9151181926059447067
23503958 25 8357994302375252563
23559900 14 18410582755622960441
23590187 32 9511452321295691370
26353 1 16988564567758124149
27216 239 8286202756139563805
312425 83 17203329974950976605
316301 35 18337679702121592394
38570 142 13913747238714963362
463206 1 18343581875590503243
5207 123 18409736145044552677
5385378 56 17183046481354963553
76465 3 18408606967439301021
88748 71 18342168930498201067
9709674 26 18339082584194819897

> <PUBCHEM_SHAPE_MULTIPOLES>
374.29
10.39
3.04
1.24
1.83
0.22
0.15
9.18
0.25
-0.01
-0.3
0.13
0.01
0.08

> <PUBCHEM_SHAPE_SELFOVERLAP>
789.049

> <PUBCHEM_SHAPE_VOLUME>
210.2

> <PUBCHEM_COORDINATE_TYPE>
2
5
10

$$$$

