3424
  -OEChem-06251223243D

 44 46  0     0  0  0  0  0  0999 V2000
   -0.6268    2.0021    2.1087 O   0  0  0  0  0  0  0  0  0  0  0  0
    2.9386    1.4277    0.0732 N   0  0  0  0  0  0  0  0  0  0  0  0
    0.7859    1.4685    0.3225 C   0  0  0  0  0  0  0  0  0  0  0  0
    1.0184    1.5004   -1.0401 C   0  0  0  0  0  0  0  0  0  0  0  0
    1.9406    1.4247    1.0127 C   0  0  0  0  0  0  0  0  0  0  0  0
    2.3883    1.4742   -1.1811 C   0  0  0  0  0  0  0  0  0  0  0  0
   -1.7365    0.9093    0.3638 C   0  0  0  0  0  0  0  0  0  0  0  0
   -0.5507    1.4809    0.9875 C   0  0  0  0  0  0  0  0  0  0  0  0
   -2.0810   -0.4281    0.5595 C   0  0  0  0  0  0  0  0  0  0  0  0
   -1.2457   -1.3230    1.4162 C   0  0  0  0  0  0  0  0  0  0  0  0
    0.0300    1.5535   -2.1373 C   0  0  0  0  0  0  0  0  0  0  0  0
    2.2560    1.3793    2.4540 C   0  0  0  0  0  0  0  0  0  0  0  0
    3.2402    1.4882   -2.3858 C   0  0  0  0  0  0  0  0  0  0  0  0
   -2.5321    1.7236   -0.4423 C   0  0  0  0  0  0  0  0  0  0  0  0
   -0.1489   -2.0440    0.6609 C   0  0  0  0  0  0  0  0  0  0  0  0
   -3.2211   -0.9511   -0.0507 C   0  0  0  0  0  0  0  0  0  0  0  0
   -3.6721    1.2005   -1.0525 C   0  0  0  0  0  0  0  0  0  0  0  0
   -4.0166   -0.1368   -0.8567 C   0  0  0  0  0  0  0  0  0  0  0  0
   -0.4431   -2.6336   -0.5556 C   0  0  0  0  0  0  0  0  0  0  0  0
    1.1221   -2.0966    1.2047 C   0  0  0  0  0  0  0  0  0  0  0  0
    0.5672   -3.2976   -1.2514 C   0  0  0  0  0  0  0  0  0  0  0  0
    2.1324   -2.7607    0.5089 C   0  0  0  0  0  0  0  0  0  0  0  0
    1.8549   -3.3612   -0.7191 C   0  0  0  0  0  0  0  0  0  0  0  0
    3.9289    1.4002    0.2751 H   0  0  0  0  0  0  0  0  0  0  0  0
   -1.8830   -2.0862    1.8851 H   0  0  0  0  0  0  0  0  0  0  0  0
   -0.8319   -0.7631    2.2641 H   0  0  0  0  0  0  0  0  0  0  0  0
    0.5300    1.5650   -3.1129 H   0  0  0  0  0  0  0  0  0  0  0  0
   -0.6147    0.6711   -2.1437 H   0  0  0  0  0  0  0  0  0  0  0  0
   -0.5608    2.4712   -2.0935 H   0  0  0  0  0  0  0  0  0  0  0  0
    2.1613    2.3764    2.8961 H   0  0  0  0  0  0  0  0  0  0  0  0
    1.5813    0.7025    2.9870 H   0  0  0  0  0  0  0  0  0  0  0  0
    3.2779    1.0278    2.6319 H   0  0  0  0  0  0  0  0  0  0  0  0
    4.3056    1.4657   -2.1341 H   0  0  0  0  0  0  0  0  0  0  0  0
    3.0273    0.6179   -3.0151 H   0  0  0  0  0  0  0  0  0  0  0  0
    3.0555    2.3918   -2.9757 H   0  0  0  0  0  0  0  0  0  0  0  0
   -2.2910    2.7739   -0.5843 H   0  0  0  0  0  0  0  0  0  0  0  0
   -3.5118   -1.9876    0.0995 H   0  0  0  0  0  0  0  0  0  0  0  0
   -4.2948    1.8361   -1.6751 H   0  0  0  0  0  0  0  0  0  0  0  0
   -4.9063   -0.5429   -1.3289 H   0  0  0  0  0  0  0  0  0  0  0  0
   -1.4334   -2.6275   -0.9938 H   0  0  0  0  0  0  0  0  0  0  0  0
    1.3474   -1.6425    2.1644 H   0  0  0  0  0  0  0  0  0  0  0  0
    0.3505   -3.7697   -2.2053 H   0  0  0  0  0  0  0  0  0  0  0  0
    3.1347   -2.8115    0.9242 H   0  0  0  0  0  0  0  0  0  0  0  0
    2.6412   -3.8794   -1.2602 H   0  0  0  0  0  0  0  0  0  0  0  0
  1  8  2  0  0  0  0
  2  5  1  0  0  0  0
  2  6  1  0  0  0  0
  2 24  1  0  0  0  0
  3  4  1  0  0  0  0
  3  5  2  0  0  0  0
  3  8  1  0  0  0  0
  4  6  2  0  0  0  0
  4 11  1  0  0  0  0
  5 12  1  0  0  0  0
  6 13  1  0  0  0  0
  7  8  1  0  0  0  0
  7  9  1  0  0  0  0
  7 14  2  0  0  0  0
  9 10  1  0  0  0  0
  9 16  2  0  0  0  0
 10 15  1  0  0  0  0
 10 25  1  0  0  0  0
 10 26  1  0  0  0  0
 11 27  1  0  0  0  0
 11 28  1  0  0  0  0
 11 29  1  0  0  0  0
 12 30  1  0  0  0  0
 12 31  1  0  0  0  0
 12 32  1  0  0  0  0
 13 33  1  0  0  0  0
 13 34  1  0  0  0  0
 13 35  1  0  0  0  0
 14 17  1  0  0  0  0
 14 36  1  0  0  0  0
 15 19  2  0  0  0  0
 15 20  1  0  0  0  0
 16 18  1  0  0  0  0
 16 37  1  0  0  0  0
 17 18  2  0  0  0  0
 17 38  1  0  0  0  0
 18 39  1  0  0  0  0
 19 21  1  0  0  0  0
 19 40  1  0  0  0  0
 20 22  2  0  0  0  0
 20 41  1  0  0  0  0
 21 23  2  0  0  0  0
 21 42  1  0  0  0  0
 22 23  1  0  0  0  0
 22 43  1  0  0  0  0
 23 44  1  0  0  0  0
M  END
> <PUBCHEM_COMPOUND_CID>
3424

> <PUBCHEM_CONFORMER_RMSD>
0.6

> <PUBCHEM_CONFORMER_DIVERSEORDER>
32
7
37
80
51
92
49
90
13
58
48
88
55
67
27
62
29
44
14
89
40
17
82
6
20
57
78
83
60
65
38
33
12
5
36
52
34
75
23
64
39
8
42
71
76
47
15
9
86
77
91
85
31
16
45
50
73
11
93
46
79
30
28
59
54
87
81
10
2
61
74
24
1
72
22
84
26
35
41
25
3
19
53
4
63
18
21
56
70
68
69
43
66

> <PUBCHEM_MMFF94_PARTIAL_CHARGES>
33
1 -0.57
10 0.29
11 0.18
12 0.18
13 0.18
14 -0.15
15 -0.14
16 -0.15
17 -0.15
18 -0.15
19 -0.15
2 0.03
20 -0.15
21 -0.15
22 -0.15
23 -0.15
24 0.27
3 -0.09
36 0.15
37 0.15
38 0.15
39 0.15
4 -0.18
40 0.15
41 0.15
42 0.15
43 0.15
44 0.15
5 -0.33
6 -0.33
7 0.09
8 0.57
9 -0.14

> <PUBCHEM_EFFECTIVE_ROTOR_COUNT>
4

> <PUBCHEM_PHARMACOPHORE_FEATURES>
6
1 1 acceptor
1 2 cation
1 2 donor
5 2 3 4 5 6 rings
6 15 19 20 21 22 23 rings
6 7 9 14 16 17 18 rings

> <PUBCHEM_HEAVY_ATOM_COUNT>
23

> <PUBCHEM_ATOM_DEF_STEREO_COUNT>
0

> <PUBCHEM_ATOM_UDEF_STEREO_COUNT>
0

> <PUBCHEM_BOND_DEF_STEREO_COUNT>
0

> <PUBCHEM_BOND_UDEF_STEREO_COUNT>
0

> <PUBCHEM_ISOTOPIC_ATOM_COUNT>
0

> <PUBCHEM_COMPONENT_COUNT>
1

> <PUBCHEM_CACTVS_TAUTO_COUNT>
3

> <PUBCHEM_CONFORMER_ID>
00000D6000000020

> <PUBCHEM_MMFF94_ENERGY>
65.469

> <PUBCHEM_FEATURE_SELFOVERLAP>
30.446

> <PUBCHEM_SHAPE_FINGERPRINT>
107951 10 17487597655726020362
11370993 70 18340768126898708508
11582403 64 16374712688894721048
11828532 37 15313850840662052950
12156800 1 15217572315702543710
12422481 6 17909869653143401314
133893 2 18128517444136120961
14022347 108 16901304868109022002
14181834 199 18268165312342277475
14863182 85 18336845120823726139
14955137 171 17179666573909618073
15463212 79 17626375728492941532
15881359 60 17555499181240308904
1601671 61 16756066585214877061
16752209 62 17981610355482503119
16945 1 18270685247096179497
17357779 13 17760670438927488327
17492 54 17985527069936864358
17780758 139 5975053357750376020
20600515 1 17693952090518150395
20645476 183 17272574919249723977
20691752 17 17274265096903787037
20905425 154 18410854335205952751
22889148 1 17906164049438339567
23419403 2 17692010288748444234
23559900 14 18044929083597757248
238 59 18410855434543208671
35225 105 18047755901531187550
469060 322 14171739932000183542
5265222 85 18195805164488305020
5845 1 10422443755389498899
6443956 14 17975989969969151425
7364860 26 18189911961865866627
81228 2 17039505796044870275
84936 31 17825420554154134307
90525 40 17915451701493935509
9925002 15 17825706336883452927

> <PUBCHEM_SHAPE_MULTIPOLES>
462.48
5.01
3.95
2.08
3.24
3.51
0.1
-1.53
-1.58
-2.54
-0.7
-1.31
-1.09
-0.01

> <PUBCHEM_SHAPE_SELFOVERLAP>
1014.598

> <PUBCHEM_SHAPE_VOLUME>
252.4

> <PUBCHEM_COORDINATE_TYPE>
2
5
10

$$$$

