3998
  -OEChem-06251223483D

 22 22  0     0  0  0  0  0  0999 V2000
    2.5102   -0.0004   -0.2001 S   0  0  0  0  0  0  0  0  0  0  0  0
    2.9064   -1.2609   -0.8124 O   0  0  0  0  0  0  0  0  0  0  0  0
    2.9103    1.2586   -0.8129 O   0  0  0  0  0  0  0  0  0  0  0  0
    3.0125    0.0008    1.4331 N   0  0  0  0  0  0  0  0  0  0  0  0
   -4.1799   -0.0010   -0.8487 N   0  0  0  0  0  0  0  0  0  0  0  0
    0.7742    0.0002   -0.0143 C   0  0  0  0  0  0  0  0  0  0  0  0
   -1.9998    0.0006    0.2817 C   0  0  0  0  0  0  0  0  0  0  0  0
    0.0807    1.2082    0.0588 C   0  0  0  0  0  0  0  0  0  0  0  0
    0.0807   -1.2076    0.0605 C   0  0  0  0  0  0  0  0  0  0  0  0
   -1.3063    1.2085    0.2070 C   0  0  0  0  0  0  0  0  0  0  0  0
   -1.3063   -1.2075    0.2085 C   0  0  0  0  0  0  0  0  0  0  0  0
   -3.4828    0.0006    0.4387 C   0  0  0  0  0  0  0  0  0  0  0  0
    0.6012    2.1605    0.0087 H   0  0  0  0  0  0  0  0  0  0  0  0
    0.6009   -2.1602    0.0118 H   0  0  0  0  0  0  0  0  0  0  0  0
   -1.8349    2.1564    0.2626 H   0  0  0  0  0  0  0  0  0  0  0  0
   -1.8351   -2.1554    0.2654 H   0  0  0  0  0  0  0  0  0  0  0  0
   -3.8036   -0.8725    1.0193 H   0  0  0  0  0  0  0  0  0  0  0  0
   -3.8038    0.8749    1.0173 H   0  0  0  0  0  0  0  0  0  0  0  0
    3.4341   -0.8599    1.8028 H   0  0  0  0  0  0  0  0  0  0  0  0
    3.4347    0.8619    1.8014 H   0  0  0  0  0  0  0  0  0  0  0  0
   -3.9033   -0.8186   -1.3907 H   0  0  0  0  0  0  0  0  0  0  0  0
   -3.9035    0.8155   -1.3926 H   0  0  0  0  0  0  0  0  0  0  0  0
  1  2  2  0  0  0  0
  1  3  2  0  0  0  0
  1  4  1  0  0  0  0
  1  6  1  0  0  0  0
  4 19  1  0  0  0  0
  4 20  1  0  0  0  0
  5 12  1  0  0  0  0
  5 21  1  0  0  0  0
  5 22  1  0  0  0  0
  6  8  2  0  0  0  0
  6  9  1  0  0  0  0
  7 10  2  0  0  0  0
  7 11  1  0  0  0  0
  7 12  1  0  0  0  0
  8 10  1  0  0  0  0
  8 13  1  0  0  0  0
  9 11  2  0  0  0  0
  9 14  1  0  0  0  0
 10 15  1  0  0  0  0
 11 16  1  0  0  0  0
 12 17  1  0  0  0  0
 12 18  1  0  0  0  0
M  END
> <PUBCHEM_COMPOUND_CID>
3998

> <PUBCHEM_CONFORMER_RMSD>
0.6

> <PUBCHEM_CONFORMER_DIVERSEORDER>
1
2

> <PUBCHEM_MMFF94_PARTIAL_CHARGES>
20
1 1.45
10 -0.15
11 -0.15
12 0.41
13 0.15
14 0.15
15 0.15
16 0.15
19 0.42
2 -0.65
20 0.42
21 0.36
22 0.36
3 -0.65
4 -0.98
5 -0.99
6 -0.01
7 -0.14
8 -0.15
9 -0.15

> <PUBCHEM_EFFECTIVE_ROTOR_COUNT>
2

> <PUBCHEM_PHARMACOPHORE_FEATURES>
6
1 2 acceptor
1 3 acceptor
1 4 donor
1 5 cation
1 5 donor
6 6 7 8 9 10 11 rings

> <PUBCHEM_HEAVY_ATOM_COUNT>
12

> <PUBCHEM_ATOM_DEF_STEREO_COUNT>
0

> <PUBCHEM_ATOM_UDEF_STEREO_COUNT>
0

> <PUBCHEM_BOND_DEF_STEREO_COUNT>
0

> <PUBCHEM_BOND_UDEF_STEREO_COUNT>
0

> <PUBCHEM_ISOTOPIC_ATOM_COUNT>
0

> <PUBCHEM_COMPONENT_COUNT>
1

> <PUBCHEM_CACTVS_TAUTO_COUNT>
1

> <PUBCHEM_CONFORMER_ID>
00000F9E00000001

> <PUBCHEM_MMFF94_ENERGY>
8.4291

> <PUBCHEM_FEATURE_SELFOVERLAP>
30.463

> <PUBCHEM_SHAPE_FINGERPRINT>
10130415 120 18272373065874044568
10219947 1 18410287017201686765
11062470 55 17203609281027211013
11132069 177 18335708238685325683
11401426 45 18335713745107666677
12032990 46 18410564089969073747
12932764 1 17095519608356809616
14325111 11 18410848876133337521
14993402 34 18341889675708021237
15775835 57 17489304157642855916
16945 1 18410569587273732257
18186145 218 17846774118074519485
19026448 4 15985104102657348041
19026448 5 15936408953161234539
20201158 50 18334851727685665198
20645476 183 17274526638383843738
21293036 1 18412544288956694581
23402539 116 18260556653086127557
23402655 69 18335424590856194109
23552423 10 18342730841042993806
2748010 2 18049720720267495993
3248919 1 18409725162217012714
3286 77 17240484757834169818
369184 2 17060339604291915808
5084963 1 18261947569913354800
581208 293 18261114075443025478
7364860 26 18335133177467597980

> <PUBCHEM_SHAPE_MULTIPOLES>
229.1
5.96
1.32
0.9
1.86
0
0.11
0
-0.67
-0.31
-0.1
-0.38
0
0

> <PUBCHEM_SHAPE_SELFOVERLAP>
459.137

> <PUBCHEM_SHAPE_VOLUME>
135

> <PUBCHEM_COORDINATE_TYPE>
2
5
10

$$$$

