13094
  -OEChem-06261207453D

 29 33  0     0  0  0  0  0  0999 V2000
    4.4158    0.1556   -0.9903 O   0  0  0  0  0  0  0  0  0  0  0  0
    1.5145    0.3747    0.0925 C   0  0  0  0  0  0  0  0  0  0  0  0
    2.4491   -0.6952    0.0957 C   0  0  0  0  0  0  0  0  0  0  0  0
    0.1088    0.0704    0.0529 C   0  0  0  0  0  0  0  0  0  0  0  0
    3.8202   -0.4479    0.0707 C   0  0  0  0  0  0  0  0  0  0  0  0
   -0.3036   -1.2852    0.0609 C   0  0  0  0  0  0  0  0  0  0  0  0
    4.3259    0.8701    0.1649 C   0  0  0  0  0  0  0  0  0  0  0  0
    2.0114   -2.0165    0.1294 C   0  0  0  0  0  0  0  0  0  0  0  0
    2.0529    1.6852    0.1928 C   0  0  0  0  0  0  0  0  0  0  0  0
   -0.9150    1.0503    0.0121 C   0  0  0  0  0  0  0  0  0  0  0  0
   -2.2838    0.7230   -0.0208 C   0  0  0  0  0  0  0  0  0  0  0  0
    0.6514   -2.3068    0.1094 C   0  0  0  0  0  0  0  0  0  0  0  0
   -2.6655   -0.6310   -0.0122 C   0  0  0  0  0  0  0  0  0  0  0  0
    3.4323    1.9154    0.3001 C   0  0  0  0  0  0  0  0  0  0  0  0
   -1.6695   -1.6162    0.0288 C   0  0  0  0  0  0  0  0  0  0  0  0
   -3.2785    1.7153   -0.0626 C   0  0  0  0  0  0  0  0  0  0  0  0
   -4.0305   -0.9642   -0.0445 C   0  0  0  0  0  0  0  0  0  0  0  0
   -4.6301    1.3711   -0.0945 C   0  0  0  0  0  0  0  0  0  0  0  0
   -5.0058    0.0320   -0.0853 C   0  0  0  0  0  0  0  0  0  0  0  0
   -0.6525    2.1069   -0.0012 H   0  0  0  0  0  0  0  0  0  0  0  0
    2.7224   -2.8399    0.1512 H   0  0  0  0  0  0  0  0  0  0  0  0
    1.4034    2.5533    0.2700 H   0  0  0  0  0  0  0  0  0  0  0  0
    0.3454   -3.3514    0.1239 H   0  0  0  0  0  0  0  0  0  0  0  0
   -1.9650   -2.6661    0.0369 H   0  0  0  0  0  0  0  0  0  0  0  0
    3.7949    2.9119    0.5350 H   0  0  0  0  0  0  0  0  0  0  0  0
   -3.0071    2.7690   -0.0703 H   0  0  0  0  0  0  0  0  0  0  0  0
   -4.3455   -2.0056   -0.0382 H   0  0  0  0  0  0  0  0  0  0  0  0
   -5.3877    2.1486   -0.1265 H   0  0  0  0  0  0  0  0  0  0  0  0
   -6.0573   -0.2383   -0.1101 H   0  0  0  0  0  0  0  0  0  0  0  0
  1  5  1  0  0  0  0
  1  7  1  0  0  0  0
  2  3  2  0  0  0  0
  2  4  1  0  0  0  0
  2  9  1  0  0  0  0
  3  5  1  0  0  0  0
  3  8  1  0  0  0  0
  4  6  1  0  0  0  0
  4 10  2  0  0  0  0
  5  7  2  0  0  0  0
  6 12  1  0  0  0  0
  6 15  2  0  0  0  0
  7 14  1  0  0  0  0
  8 12  2  0  0  0  0
  8 21  1  0  0  0  0
  9 14  2  0  0  0  0
  9 22  1  0  0  0  0
 10 11  1  0  0  0  0
 10 20  1  0  0  0  0
 11 13  1  0  0  0  0
 11 16  2  0  0  0  0
 12 23  1  0  0  0  0
 13 15  1  0  0  0  0
 13 17  2  0  0  0  0
 14 25  1  0  0  0  0
 15 24  1  0  0  0  0
 16 18  1  0  0  0  0
 16 26  1  0  0  0  0
 17 19  1  0  0  0  0
 17 27  1  0  0  0  0
 18 19  2  0  0  0  0
 18 28  1  0  0  0  0
 19 29  1  0  0  0  0
M  END
> <PUBCHEM_COMPOUND_CID>
13094

> <PUBCHEM_CONFORMER_RMSD>
0.6

> <PUBCHEM_CONFORMER_DIVERSEORDER>
1

> <PUBCHEM_MMFF94_PARTIAL_CHARGES>
23
1 -0.17
10 -0.15
12 -0.15
14 -0.15
15 -0.15
16 -0.15
17 -0.15
18 -0.15
19 -0.15
20 0.15
21 0.15
22 0.15
23 0.15
24 0.15
25 0.15
26 0.15
27 0.15
28 0.15
29 0.15
5 0.08
7 0.08
8 -0.15
9 -0.15

> <PUBCHEM_EFFECTIVE_ROTOR_COUNT>
0.2

> <PUBCHEM_PHARMACOPHORE_FEATURES>
5
1 1 acceptor
6 11 13 16 17 18 19 rings
6 2 3 4 6 8 12 rings
6 4 6 10 11 13 15 rings
7 1 2 3 5 7 9 14 rings

> <PUBCHEM_HEAVY_ATOM_COUNT>
19

> <PUBCHEM_ATOM_DEF_STEREO_COUNT>
0

> <PUBCHEM_ATOM_UDEF_STEREO_COUNT>
0

> <PUBCHEM_BOND_DEF_STEREO_COUNT>
0

> <PUBCHEM_BOND_UDEF_STEREO_COUNT>
0

> <PUBCHEM_ISOTOPIC_ATOM_COUNT>
0

> <PUBCHEM_COMPONENT_COUNT>
1

> <PUBCHEM_CACTVS_TAUTO_COUNT>
1

> <PUBCHEM_CONFORMER_ID>
0000332600000001

> <PUBCHEM_MMFF94_ENERGY>
123.8192

> <PUBCHEM_FEATURE_SELFOVERLAP>
25.433

> <PUBCHEM_SHAPE_FINGERPRINT>
10411042 1 17329994011109364219
10498660 4 18412266159485623109
10608611 8 18411985792752633165
10616163 171 18409448047023017295
10646746 165 18411418401644713844
10967382 1 18410857680726493656
11471102 20 18410014363919133486
12107183 9 17615968146455533633
12403259 415 18335420127778791352
12592029 89 18413107277169468930
12644460 14 18272087265854769683
13140716 1 18339652131254723504
13583140 156 16773252694600469929
138480 1 17762058035508261907
14528608 73 18408327674727989629
14790565 3 18341041918142432028
15196674 1 18410856563934776379
15375358 24 18343864415987731875
15442244 35 18121500421041430818
15536298 74 18335421300267647327
1601671 61 18341894116952280996
16945 1 18410301302178874562
18186145 218 18187640306276005632
19591789 44 18337391526457654075
19862831 5 17821728333878150601
200 152 17967254191467761897
20645477 70 18260829353397459190
21267235 1 18410003342975198539
21421861 104 17629488758952749266
221357 26 18260265269641178269
221490 88 18339635741280233251
22854114 111 18413392046465040978
23227448 37 18262802852331108687
23366157 5 17915456305836533554
23402539 116 18261681393288464308
23402655 69 18333733524128004541
23558518 356 17695072098193690352
23559900 14 18263085590155233250
25 1 18412266151058997846
2748010 2 17977945679380551330
3004659 81 18270954748585160462
335352 9 18410575123898313006
350125 39 18269838765161360646
3545911 37 18412543223836570469
4214541 1 18410293622972450129
4340502 62 16988840605754286251
474 4 17918269831384323860
495365 180 17313674746186236744
4990 188 18040427806924409486
5104073 3 18341331179936379947
543358 83 18264485263919162761
6138700 20 18266173010880810046
633830 44 18334580126759614676
69090 78 18334016055745914711
7364860 26 18264207074888345710
77779 3 18410011044030719945
7808743 9 18051416167577984472
8272917 22 18262514917792266847
9709674 26 18410288116703375719

> <PUBCHEM_SHAPE_MULTIPOLES>
385.14
9.45
2.19
0.66
3
0.35
-0.03
-3.09
-0.61
-0.38
0.12
-0.18
-0.01
0.12

> <PUBCHEM_SHAPE_SELFOVERLAP>
901.12

> <PUBCHEM_SHAPE_VOLUME>
196.8

> <PUBCHEM_COORDINATE_TYPE>
2
5
10

$$$$

