13741
  -OEChem-06241222403D

 48 48  0     0  0  0  0  0  0999 V2000
   -1.5145   -1.6620    0.0607 N   0  3  0  0  0  0  0  0  0  0  0  0
   -0.5213   -0.6697    0.5327 C   0  0  0  0  0  0  0  0  0  0  0  0
    0.8622   -0.9849   -0.0236 C   0  0  0  0  0  0  0  0  0  0  0  0
   -2.8927   -1.3978    0.6850 C   0  0  0  0  0  0  0  0  0  0  0  0
    1.9856   -0.0295    0.3945 C   0  0  0  0  0  0  0  0  0  0  0  0
   -1.0870   -3.0877    0.4399 C   0  0  0  0  0  0  0  0  0  0  0  0
   -1.6659   -1.6022   -1.4666 C   0  0  0  0  0  0  0  0  0  0  0  0
    3.3606   -0.4352   -0.1403 C   0  0  0  0  0  0  0  0  0  0  0  0
   -3.4580   -0.0579    0.3161 C   0  0  0  0  0  0  0  0  0  0  0  0
    4.4257    0.5998    0.2292 C   0  0  0  0  0  0  0  0  0  0  0  0
    5.8074    0.1808   -0.2761 C   0  0  0  0  0  0  0  0  0  0  0  0
   -3.1850    1.0479    1.1136 C   0  0  0  0  0  0  0  0  0  0  0  0
   -4.2497    0.0663   -0.8203 C   0  0  0  0  0  0  0  0  0  0  0  0
    6.8767    1.1979    0.1221 C   0  0  0  0  0  0  0  0  0  0  0  0
   -3.7103    2.2937    0.7707 C   0  0  0  0  0  0  0  0  0  0  0  0
   -4.7750    1.3122   -1.1632 C   0  0  0  0  0  0  0  0  0  0  0  0
    8.2462    0.8025   -0.4067 C   0  0  0  0  0  0  0  0  0  0  0  0
   -4.5052    2.4259   -0.3677 C   0  0  0  0  0  0  0  0  0  0  0  0
   -0.8112    0.3286    0.1913 H   0  0  0  0  0  0  0  0  0  0  0  0
   -0.5075   -0.6845    1.6290 H   0  0  0  0  0  0  0  0  0  0  0  0
    0.8483   -0.9920   -1.1184 H   0  0  0  0  0  0  0  0  0  0  0  0
    1.1870   -1.9794    0.2987 H   0  0  0  0  0  0  0  0  0  0  0  0
   -2.7790   -1.4906    1.7730 H   0  0  0  0  0  0  0  0  0  0  0  0
   -3.5674   -2.2017    0.3630 H   0  0  0  0  0  0  0  0  0  0  0  0
    1.7386    0.9792    0.0408 H   0  0  0  0  0  0  0  0  0  0  0  0
    2.0244    0.0203    1.4898 H   0  0  0  0  0  0  0  0  0  0  0  0
   -0.8363   -3.1015    1.5046 H   0  0  0  0  0  0  0  0  0  0  0  0
   -1.9288   -3.7594    0.2427 H   0  0  0  0  0  0  0  0  0  0  0  0
   -0.2412   -3.4018   -0.1764 H   0  0  0  0  0  0  0  0  0  0  0  0
   -0.7895   -2.0627   -1.9316 H   0  0  0  0  0  0  0  0  0  0  0  0
   -2.5472   -2.1842   -1.7531 H   0  0  0  0  0  0  0  0  0  0  0  0
   -1.7456   -0.5603   -1.7872 H   0  0  0  0  0  0  0  0  0  0  0  0
    3.3149   -0.5390   -1.2310 H   0  0  0  0  0  0  0  0  0  0  0  0
    3.6364   -1.4153    0.2671 H   0  0  0  0  0  0  0  0  0  0  0  0
    4.4555    0.7210    1.3189 H   0  0  0  0  0  0  0  0  0  0  0  0
    4.1573    1.5738   -0.1975 H   0  0  0  0  0  0  0  0  0  0  0  0
    5.7826    0.0798   -1.3680 H   0  0  0  0  0  0  0  0  0  0  0  0
    6.0675   -0.8029    0.1334 H   0  0  0  0  0  0  0  0  0  0  0  0
   -2.5743    0.9584    2.0079 H   0  0  0  0  0  0  0  0  0  0  0  0
   -4.4825   -0.7927   -1.4428 H   0  0  0  0  0  0  0  0  0  0  0  0
    6.9223    1.2822    1.2141 H   0  0  0  0  0  0  0  0  0  0  0  0
    6.6136    2.1875   -0.2691 H   0  0  0  0  0  0  0  0  0  0  0  0
   -3.5020    3.1604    1.3911 H   0  0  0  0  0  0  0  0  0  0  0  0
   -5.3969    1.4146   -2.0477 H   0  0  0  0  0  0  0  0  0  0  0  0
    8.2426    0.7428   -1.4998 H   0  0  0  0  0  0  0  0  0  0  0  0
    8.9955    1.5429   -0.1095 H   0  0  0  0  0  0  0  0  0  0  0  0
    8.5538   -0.1703   -0.0102 H   0  0  0  0  0  0  0  0  0  0  0  0
   -4.9153    3.3956   -0.6341 H   0  0  0  0  0  0  0  0  0  0  0  0
  1  2  1  0  0  0  0
  1  4  1  0  0  0  0
  1  6  1  0  0  0  0
  1  7  1  0  0  0  0
  2  3  1  0  0  0  0
  2 19  1  0  0  0  0
  2 20  1  0  0  0  0
  3  5  1  0  0  0  0
  3 21  1  0  0  0  0
  3 22  1  0  0  0  0
  4  9  1  0  0  0  0
  4 23  1  0  0  0  0
  4 24  1  0  0  0  0
  5  8  1  0  0  0  0
  5 25  1  0  0  0  0
  5 26  1  0  0  0  0
  6 27  1  0  0  0  0
  6 28  1  0  0  0  0
  6 29  1  0  0  0  0
  7 30  1  0  0  0  0
  7 31  1  0  0  0  0
  7 32  1  0  0  0  0
  8 10  1  0  0  0  0
  8 33  1  0  0  0  0
  8 34  1  0  0  0  0
  9 12  2  0  0  0  0
  9 13  1  0  0  0  0
 10 11  1  0  0  0  0
 10 35  1  0  0  0  0
 10 36  1  0  0  0  0
 11 14  1  0  0  0  0
 11 37  1  0  0  0  0
 11 38  1  0  0  0  0
 12 15  1  0  0  0  0
 12 39  1  0  0  0  0
 13 16  2  0  0  0  0
 13 40  1  0  0  0  0
 14 17  1  0  0  0  0
 14 41  1  0  0  0  0
 14 42  1  0  0  0  0
 15 18  2  0  0  0  0
 15 43  1  0  0  0  0
 16 18  1  0  0  0  0
 16 44  1  0  0  0  0
 17 45  1  0  0  0  0
 17 46  1  0  0  0  0
 17 47  1  0  0  0  0
 18 48  1  0  0  0  0
M  CHG  1   1   1
M  END
> <PUBCHEM_COMPOUND_CID>
13741

> <PUBCHEM_CONFORMER_RMSD>
0.8

> <PUBCHEM_CONFORMER_DIVERSEORDER>
34
7
56
106
101
9
53
126
47
62
3
100
45
107
20
92
13
61
24
57
80
114
60
73
42
52
49
12
90
89
112
116
4
58
87
86
10
27
64
99
94
8
103
19
77
21
83
59
22
81
129
30
96
68
113
25
119
43
16
29
82
88
97
130
109
11
39
55
23
108
71
115
67
26
65
70
44
18
118
50
38
14
54
36
122
46
120
32
1
31
124
28
95
17
98
102
72
117
123
2
105
51
5
76
15
74
79
91
6
63
37
111
125
78
33
66
35
93
41
110
121
40
48
104
84
128
69
85
75
127

> <PUBCHEM_MMFF94_PARTIAL_CHARGES>
16
1 -1.01
12 -0.15
13 -0.15
15 -0.15
16 -0.15
18 -0.15
2 0.5
39 0.15
4 0.65
40 0.15
43 0.15
44 0.15
48 0.15
6 0.5
7 0.5
9 -0.14

> <PUBCHEM_EFFECTIVE_ROTOR_COUNT>
9

> <PUBCHEM_PHARMACOPHORE_FEATURES>
5
1 1 cation
1 17 hydrophobe
3 10 11 14 hydrophobe
3 3 5 8 hydrophobe
6 9 12 13 15 16 18 rings

> <PUBCHEM_HEAVY_ATOM_COUNT>
18

> <PUBCHEM_ATOM_DEF_STEREO_COUNT>
0

> <PUBCHEM_ATOM_UDEF_STEREO_COUNT>
0

> <PUBCHEM_BOND_DEF_STEREO_COUNT>
0

> <PUBCHEM_BOND_UDEF_STEREO_COUNT>
0

> <PUBCHEM_ISOTOPIC_ATOM_COUNT>
0

> <PUBCHEM_COMPONENT_COUNT>
1

> <PUBCHEM_CACTVS_TAUTO_COUNT>
1

> <PUBCHEM_CONFORMER_ID>
000035AD00000022

> <PUBCHEM_MMFF94_ENERGY>
41.5188

> <PUBCHEM_FEATURE_SELFOVERLAP>
25.384

> <PUBCHEM_SHAPE_FINGERPRINT>
10411042 1 17835236749703305283
10730089 173 18408603669316257616
11089746 13 18333455331281897896
11315181 36 17560519504114688414
12091667 2 18337669720685934114
12616971 3 16271924871138761318
13073987 5 18272932717804785898
13167372 99 18272088272000982868
13288520 33 8214145157216000147
14123255 352 18411138056138854996
14251751 18 9943804491604881954
14251752 14 18408041819459571880
14729087 3 18410015421393951832
15183329 4 18333731351723807250
155225 5 18265895942087494480
16079462 125 17822298951345214776
167882 2 17969216922703188510
17093844 174 18339364063941030906
17780758 139 11959733784891003767
17844677 252 18269265756542244728
18927931 339 9295291642209947952
19489759 90 18186519882600041458
200 152 5761652585772256062
20058555 10 18266178319418677040
20281389 69 18343019987116079944
20621476 66 18342735217973351692
20645477 56 18261387823794955675
21054139 6 6338958854565983948
21150785 3 5761648218708193400
21709351 56 17968660407121634548
23081809 10 5256419318688816498
23198884 109 18260831501197208916
23559900 14 17822296747726305248
270888 7 18196936784906769197
300161 21 18409452471355985058
351380 3 7925625609501084060
4015057 19 15213306270858843898
441001 317 18408885126975695896
445580 37 18338223904806458708
6327066 14 18270686484284417005
6328613 192 18341890754594690660
6431902 208 8142084260623099908
7062679 6 18343015593338279340
77188 2 17331958327255423891
7970288 3 8646469826602538661
9953998 17 11312063145035349542
9981440 41 18342737464188682563

> <PUBCHEM_SHAPE_MULTIPOLES>
365.45
17.28
2.54
1.04
42.84
0.63
0.16
-12.27
2.67
-3.52
-0.18
-1.08
0
0.04

> <PUBCHEM_SHAPE_SELFOVERLAP>
708.847

> <PUBCHEM_SHAPE_VOLUME>
222.8

> <PUBCHEM_COORDINATE_TYPE>
2
5
10

$$$$

