12236
  -OEChem-06261206423D

 41 40  0     1  0  0  0  0  0999 V2000
   -1.1575   -0.4272   -0.4575 P   0  0  1  0  0  0  0  0  0  0  0  0
    1.7727   -0.1873   -0.7400 P   0  0  0  0  0  0  0  0  0  0  0  0
    0.3148    0.1851   -0.1482 O   0  0  0  0  0  0  0  0  0  0  0  0
   -1.3894    0.0290   -2.0020 O   0  0  0  0  0  0  0  0  0  0  0  0
   -1.1636   -1.9287   -0.3239 O   0  0  0  0  0  0  0  0  0  0  0  0
    2.0278   -1.6866   -0.1841 O   0  0  0  0  0  0  0  0  0  0  0  0
    2.7756    0.7194    0.1499 O   0  0  0  0  0  0  0  0  0  0  0  0
    1.9088   -0.0205   -2.2259 O   0  0  0  0  0  0  0  0  0  0  0  0
   -2.2419    0.4070    0.4939 N   0  0  0  0  0  0  0  0  0  0  0  0
   -1.7686    0.8639    1.8021 C   0  0  0  0  0  0  0  0  0  0  0  0
   -3.5762   -0.1779    0.6452 C   0  0  0  0  0  0  0  0  0  0  0  0
   -2.6997    1.9121    2.3874 C   0  0  0  0  0  0  0  0  0  0  0  0
   -4.1147   -0.6693   -0.6877 C   0  0  0  0  0  0  0  0  0  0  0  0
   -1.2301    1.3875   -2.3772 C   0  0  0  0  0  0  0  0  0  0  0  0
    1.9158   -1.9166    1.2096 C   0  0  0  0  0  0  0  0  0  0  0  0
    2.7044    2.1285    0.0228 C   0  0  0  0  0  0  0  0  0  0  0  0
    2.1943   -3.3774    1.4923 C   0  0  0  0  0  0  0  0  0  0  0  0
    3.7275    2.7589    0.9434 C   0  0  0  0  0  0  0  0  0  0  0  0
   -0.7882    1.3389    1.6883 H   0  0  0  0  0  0  0  0  0  0  0  0
   -1.6384    0.0248    2.4954 H   0  0  0  0  0  0  0  0  0  0  0  0
   -4.2997    0.5577    1.0089 H   0  0  0  0  0  0  0  0  0  0  0  0
   -3.5571   -1.0181    1.3495 H   0  0  0  0  0  0  0  0  0  0  0  0
   -2.2005    2.4167    3.2224 H   0  0  0  0  0  0  0  0  0  0  0  0
   -3.6186    1.4783    2.7933 H   0  0  0  0  0  0  0  0  0  0  0  0
   -2.9605    2.6816    1.6526 H   0  0  0  0  0  0  0  0  0  0  0  0
   -5.1586   -0.9802   -0.5660 H   0  0  0  0  0  0  0  0  0  0  0  0
   -3.5754   -1.5373   -1.0749 H   0  0  0  0  0  0  0  0  0  0  0  0
   -4.1011    0.1234   -1.4433 H   0  0  0  0  0  0  0  0  0  0  0  0
   -1.3610    1.4664   -3.4592 H   0  0  0  0  0  0  0  0  0  0  0  0
   -0.2345    1.7511   -2.1151 H   0  0  0  0  0  0  0  0  0  0  0  0
   -1.9889    2.0004   -1.8843 H   0  0  0  0  0  0  0  0  0  0  0  0
    2.6410   -1.2947    1.7432 H   0  0  0  0  0  0  0  0  0  0  0  0
    0.9110   -1.6566    1.5540 H   0  0  0  0  0  0  0  0  0  0  0  0
    2.9066    2.4074   -1.0160 H   0  0  0  0  0  0  0  0  0  0  0  0
    1.6985    2.4674    0.2895 H   0  0  0  0  0  0  0  0  0  0  0  0
    1.4840   -4.0154    0.9561 H   0  0  0  0  0  0  0  0  0  0  0  0
    3.1954   -3.6537    1.1452 H   0  0  0  0  0  0  0  0  0  0  0  0
    2.1207   -3.5894    2.5627 H   0  0  0  0  0  0  0  0  0  0  0  0
    3.5403    2.4698    1.9829 H   0  0  0  0  0  0  0  0  0  0  0  0
    4.7359    2.4130    0.6936 H   0  0  0  0  0  0  0  0  0  0  0  0
    3.6998    3.8496    0.8698 H   0  0  0  0  0  0  0  0  0  0  0  0
  1  3  1  0  0  0  0
  1  4  1  0  0  0  0
  1  5  2  0  0  0  0
  1  9  1  0  0  0  0
  2  3  1  0  0  0  0
  2  6  1  0  0  0  0
  2  7  1  0  0  0  0
  2  8  2  0  0  0  0
  4 14  1  0  0  0  0
  6 15  1  0  0  0  0
  7 16  1  0  0  0  0
  9 10  1  0  0  0  0
  9 11  1  0  0  0  0
 10 12  1  0  0  0  0
 10 19  1  0  0  0  0
 10 20  1  0  0  0  0
 11 13  1  0  0  0  0
 11 21  1  0  0  0  0
 11 22  1  0  0  0  0
 12 23  1  0  0  0  0
 12 24  1  0  0  0  0
 12 25  1  0  0  0  0
 13 26  1  0  0  0  0
 13 27  1  0  0  0  0
 13 28  1  0  0  0  0
 14 29  1  0  0  0  0
 14 30  1  0  0  0  0
 14 31  1  0  0  0  0
 15 17  1  0  0  0  0
 15 32  1  0  0  0  0
 15 33  1  0  0  0  0
 16 18  1  0  0  0  0
 16 34  1  0  0  0  0
 16 35  1  0  0  0  0
 17 36  1  0  0  0  0
 17 37  1  0  0  0  0
 17 38  1  0  0  0  0
 18 39  1  0  0  0  0
 18 40  1  0  0  0  0
 18 41  1  0  0  0  0
M  END
> <PUBCHEM_COMPOUND_CID>
12236

> <PUBCHEM_CONFORMER_RMSD>
1

> <PUBCHEM_CONFORMER_DIVERSEORDER>
1
224
57
293
133
258
474
567
417
193
571
117
35
55
20
169
254
592
8
69
101
129
18
124
361
295
109
205
17
4
623
312
470
347
318
94
506
138
40
379
52
583
277
370
16
11
531
355
352
10
273
261
149
274
174
34
36
538
427
316
497
544
112
305
309
210
363
150
15
44
445
240
195
436
73
84
3
141
83
148
32
459
78
256
25
2
159
161
38
605
320
310
135
282
76
30
225
74
6
43
535
39
5
357
168
215
204
356
621
14
334
28
96
209
249
591
153
501
465
358
33
99
243
449
58
91
514
110
9
376
403
37
26
262
276
134
269
72
122
59
564
50
483
307
48
61
504
319
523
296
102
237
66
546
419
339
443
136
432
111
333
223
199
421
65
13
559
22
75
100
85
314
578
54
561
42
327

> <PUBCHEM_MMFF94_PARTIAL_CHARGES>
14
1 1.51
10 0.27
11 0.27
14 0.28
15 0.28
16 0.28
2 1.51
3 -0.54
4 -0.55
5 -0.7
6 -0.55
7 -0.55
8 -0.7
9 -0.81

> <PUBCHEM_EFFECTIVE_ROTOR_COUNT>
10

> <PUBCHEM_PHARMACOPHORE_FEATURES>
2
1 5 acceptor
1 8 acceptor

> <PUBCHEM_HEAVY_ATOM_COUNT>
18

> <PUBCHEM_ATOM_DEF_STEREO_COUNT>
0

> <PUBCHEM_ATOM_UDEF_STEREO_COUNT>
1

> <PUBCHEM_BOND_DEF_STEREO_COUNT>
0

> <PUBCHEM_BOND_UDEF_STEREO_COUNT>
0

> <PUBCHEM_ISOTOPIC_ATOM_COUNT>
0

> <PUBCHEM_COMPONENT_COUNT>
1

> <PUBCHEM_CACTVS_TAUTO_COUNT>
1

> <PUBCHEM_CONFORMER_ID>
00002FCC00000001

> <PUBCHEM_MMFF94_ENERGY>
5.1252

> <PUBCHEM_FEATURE_SELFOVERLAP>
10.149

> <PUBCHEM_SHAPE_FINGERPRINT>
11578080 2 18270973439344238541
13583140 156 18197190729068955145
14178342 30 17986383404484143235
14787075 74 17685209478813561099
14957384 54 17898832794020897465
15295992 7 17912372231724014957
16945 1 17773855576499199301
17357990 137 17897436414021162450
17876694 64 17172691108364192748
20600515 1 17118596979024662818
21524375 3 18188771622511395248
229495 10 18267612185216296573
23557571 272 16988846085847517457
23559900 14 17459460225236406623
23598291 2 18188478194318758168
2748010 2 17416704615820402318
31174 14 18271527601546158351
4340502 62 18339923693568448579
474 4 18265610979459494392
7615 1 18261672692043392865
81228 2 17264688019976907274

> <PUBCHEM_SHAPE_MULTIPOLES>
337.93
6.31
2.99
2.27
1.41
1.17
-0.31
-1.78
1.58
-3.72
1.77
1.08
-0.86
-1

> <PUBCHEM_SHAPE_SELFOVERLAP>
600.154

> <PUBCHEM_SHAPE_VOLUME>
221.2

> <PUBCHEM_COORDINATE_TYPE>
2
5
10

$$$$

