17396439
  -OEChem-06241222563D

 49 51  0     0  0  0  0  0  0999 V2000
   -0.8282   -2.6448    0.2065 O   0  0  0  0  0  0  0  0  0  0  0  0
   -2.7685   -1.1965   -0.5202 O   0  0  0  0  0  0  0  0  0  0  0  0
   -7.7047    1.2057    0.1298 O   0  0  0  0  0  0  0  0  0  0  0  0
    3.3367   -0.1132    0.1172 N   0  0  0  0  0  0  0  0  0  0  0  0
    0.6715   -0.9135    0.5849 N   0  0  0  0  0  0  0  0  0  0  0  0
    2.2403    0.8051   -0.2196 C   0  0  0  0  0  0  0  0  0  0  0  0
    3.0008   -1.5461    0.1171 C   0  0  0  0  0  0  0  0  0  0  0  0
    1.0131    0.5091    0.6422 C   0  0  0  0  0  0  0  0  0  0  0  0
    1.7639   -1.8011    0.9753 C   0  0  0  0  0  0  0  0  0  0  0  0
    4.6557    0.2452   -0.1832 C   0  0  0  0  0  0  0  0  0  0  0  0
   -0.5667   -1.4393    0.2242 C   0  0  0  0  0  0  0  0  0  0  0  0
    5.4319    0.9491    0.7377 C   0  0  0  0  0  0  0  0  0  0  0  0
    5.1926   -0.1096   -1.4209 C   0  0  0  0  0  0  0  0  0  0  0  0
   -1.6323   -0.4468   -0.1660 C   0  0  0  0  0  0  0  0  0  0  0  0
    6.7447    1.2980    0.4209 C   0  0  0  0  0  0  0  0  0  0  0  0
    4.8829    1.3421    2.0707 C   0  0  0  0  0  0  0  0  0  0  0  0
    6.5056    0.2393   -1.7375 C   0  0  0  0  0  0  0  0  0  0  0  0
    7.2815    0.9431   -0.8168 C   0  0  0  0  0  0  0  0  0  0  0  0
   -3.9981   -0.5978   -0.3569 C   0  0  0  0  0  0  0  0  0  0  0  0
   -4.1211    0.7865   -0.4757 C   0  0  0  0  0  0  0  0  0  0  0  0
   -5.1205   -1.3762   -0.0736 C   0  0  0  0  0  0  0  0  0  0  0  0
   -5.3666    1.3926   -0.3115 C   0  0  0  0  0  0  0  0  0  0  0  0
   -6.3661   -0.7699    0.0906 C   0  0  0  0  0  0  0  0  0  0  0  0
   -6.4891    0.6144   -0.0283 C   0  0  0  0  0  0  0  0  0  0  0  0
   -7.7593    2.6248   -0.0072 C   0  0  0  0  0  0  0  0  0  0  0  0
    2.5429    1.8470   -0.0624 H   0  0  0  0  0  0  0  0  0  0  0  0
    1.9898    0.6893   -1.2815 H   0  0  0  0  0  0  0  0  0  0  0  0
    2.8116   -1.8764   -0.9120 H   0  0  0  0  0  0  0  0  0  0  0  0
    3.8333   -2.1399    0.5142 H   0  0  0  0  0  0  0  0  0  0  0  0
    0.1852    1.1471    0.3285 H   0  0  0  0  0  0  0  0  0  0  0  0
    1.2238    0.7441    1.6928 H   0  0  0  0  0  0  0  0  0  0  0  0
    1.4657   -2.8512    0.8964 H   0  0  0  0  0  0  0  0  0  0  0  0
    1.9834   -1.5988    2.0308 H   0  0  0  0  0  0  0  0  0  0  0  0
    4.6013   -0.6515   -2.1546 H   0  0  0  0  0  0  0  0  0  0  0  0
   -1.8196    0.1941    0.7041 H   0  0  0  0  0  0  0  0  0  0  0  0
   -1.2911    0.1331   -1.0296 H   0  0  0  0  0  0  0  0  0  0  0  0
    7.3629    1.8475    1.1260 H   0  0  0  0  0  0  0  0  0  0  0  0
    5.6607    1.7485    2.7264 H   0  0  0  0  0  0  0  0  0  0  0  0
    4.4539    0.4753    2.5846 H   0  0  0  0  0  0  0  0  0  0  0  0
    4.1125    2.1110    1.9546 H   0  0  0  0  0  0  0  0  0  0  0  0
    6.9231   -0.0354   -2.7017 H   0  0  0  0  0  0  0  0  0  0  0  0
    8.3035    1.2153   -1.0638 H   0  0  0  0  0  0  0  0  0  0  0  0
   -3.2745    1.4222   -0.7181 H   0  0  0  0  0  0  0  0  0  0  0  0
   -5.0302   -2.4549    0.0200 H   0  0  0  0  0  0  0  0  0  0  0  0
   -5.3923    2.4713   -0.4224 H   0  0  0  0  0  0  0  0  0  0  0  0
   -7.2369   -1.3813    0.3107 H   0  0  0  0  0  0  0  0  0  0  0  0
   -7.1620    3.1267    0.7616 H   0  0  0  0  0  0  0  0  0  0  0  0
   -7.4850    2.9422   -1.0190 H   0  0  0  0  0  0  0  0  0  0  0  0
   -8.8004    2.9249    0.1506 H   0  0  0  0  0  0  0  0  0  0  0  0
  1 11  2  0  0  0  0
  2 14  1  0  0  0  0
  2 19  1  0  0  0  0
  3 24  1  0  0  0  0
  3 25  1  0  0  0  0
  4  6  1  0  0  0  0
  4  7  1  0  0  0  0
  4 10  1  0  0  0  0
  5  8  1  0  0  0  0
  5  9  1  0  0  0  0
  5 11  1  0  0  0  0
  6  8  1  0  0  0  0
  6 26  1  0  0  0  0
  6 27  1  0  0  0  0
  7  9  1  0  0  0  0
  7 28  1  0  0  0  0
  7 29  1  0  0  0  0
  8 30  1  0  0  0  0
  8 31  1  0  0  0  0
  9 32  1  0  0  0  0
  9 33  1  0  0  0  0
 10 12  1  0  0  0  0
 10 13  2  0  0  0  0
 11 14  1  0  0  0  0
 12 15  2  0  0  0  0
 12 16  1  0  0  0  0
 13 17  1  0  0  0  0
 13 34  1  0  0  0  0
 14 35  1  0  0  0  0
 14 36  1  0  0  0  0
 15 18  1  0  0  0  0
 15 37  1  0  0  0  0
 16 38  1  0  0  0  0
 16 39  1  0  0  0  0
 16 40  1  0  0  0  0
 17 18  2  0  0  0  0
 17 41  1  0  0  0  0
 18 42  1  0  0  0  0
 19 20  2  0  0  0  0
 19 21  1  0  0  0  0
 20 22  1  0  0  0  0
 20 43  1  0  0  0  0
 21 23  2  0  0  0  0
 21 44  1  0  0  0  0
 22 24  2  0  0  0  0
 22 45  1  0  0  0  0
 23 24  1  0  0  0  0
 23 46  1  0  0  0  0
 25 47  1  0  0  0  0
 25 48  1  0  0  0  0
 25 49  1  0  0  0  0
M  END
> <PUBCHEM_COMPOUND_CID>
17396439

> <PUBCHEM_CONFORMER_RMSD>
0.8

> <PUBCHEM_CONFORMER_DIVERSEORDER>
1
101
160
90
205
131
204
116
200
107
161
79
229
32
41
231
158
152
155
234
60
129
78
157
93
236
228
42
23
144
136
232
169
235
128
210
105
85
227
223
59
171
216
110
126
175
153
134
219
22
184
147
74
183
98
117
186
58
209
34
197
66
80
94
2
39
150
120
62
29
54
133
87
63
159
177
194
193
214
163
188
4
111
211
135
114
207
106
196
97
225
213
179
104
55
142
154
201
189
109
145
14
118
156
173
53
83
148
146
24
172
10
190
57
112
149
206
6
164
77
65
141
230
88
102
122
139
68
92
13
166
103
168
224
84
208
212
96
233
119
125
28
178
218
132
70
137
127
176
192
64
100
199
33
44
18
115
217
17
12
198
182
82
86
203
19
31
121
52
67
20
38
95
75
51
151
174
167
69
140
162
27
46
124
3
50
195
185
26
91
49
45
143
11
89
170
76
202
5
108
47
237
37
9
61
36
25
113
165
187
35
226
15
138
30
99
7
221
180
43
71
40
220
16
21
215
56
48
81
191
123
130
72
181
222
8
73

> <PUBCHEM_MMFF94_PARTIAL_CHARGES>
33
1 -0.57
10 0.1
11 0.57
12 -0.14
13 -0.15
14 0.34
15 -0.15
16 0.14
17 -0.15
18 -0.15
19 0.08
2 -0.36
20 -0.15
21 -0.15
22 -0.15
23 -0.15
24 0.08
25 0.28
3 -0.36
34 0.15
37 0.15
4 -0.84
41 0.15
42 0.15
43 0.15
44 0.15
45 0.15
46 0.15
5 -0.66
6 0.37
7 0.37
8 0.3
9 0.3

> <PUBCHEM_EFFECTIVE_ROTOR_COUNT>
7.2

> <PUBCHEM_PHARMACOPHORE_FEATURES>
7
1 1 acceptor
1 2 acceptor
1 3 acceptor
1 4 cation
6 10 12 13 15 17 18 rings
6 19 20 21 22 23 24 rings
6 4 5 6 7 8 9 rings

> <PUBCHEM_HEAVY_ATOM_COUNT>
25

> <PUBCHEM_ATOM_DEF_STEREO_COUNT>
0

> <PUBCHEM_ATOM_UDEF_STEREO_COUNT>
0

> <PUBCHEM_BOND_DEF_STEREO_COUNT>
0

> <PUBCHEM_BOND_UDEF_STEREO_COUNT>
0

> <PUBCHEM_ISOTOPIC_ATOM_COUNT>
0

> <PUBCHEM_COMPONENT_COUNT>
1

> <PUBCHEM_CACTVS_TAUTO_COUNT>
1

> <PUBCHEM_CONFORMER_ID>
010972D700000001

> <PUBCHEM_MMFF94_ENERGY>
97.2118

> <PUBCHEM_FEATURE_SELFOVERLAP>
35.537

> <PUBCHEM_SHAPE_FINGERPRINT>
10 15 17632858638107666001
10066227 112 17894914027273509585
106641 1 13758067476751606997
10670039 82 16950276356517800721
10835480 77 17023190362533790264
11135609 99 9439108867072445337
13177829 20 15195561291057076573
13668630 136 8646769993487157993
13685833 64 8935000373633098166
14251752 14 14779539106230059971
14251764 18 17704072871992694495
14556957 393 15574980733178259785
14849402 71 16844717634580856340
14933364 13 18407758131962812951
15183329 4 17095237038126651638
15188451 53 9295289434697068838
15198563 99 17023451053827113968
15690457 1 10015576191192692145
15706992 2 15267046036064730726
1577012 14 18410017658855498711
18222031 100 6843929395027548386
20281389 69 17988929967977024012
21033648 29 18189065196679601680
21095123 293 17775559853529278021
21585482 111 18198905997474127029
21623969 137 13110973023991347576
221357 26 17385439921713189896
22224240 67 14476961164366893065
23081809 10 18272381861988659339
23198884 109 16732979821780309563
23559900 14 7204473538357188311
23576562 1 17605011234434675773
29717793 49 15719384028366990824
3009799 131 17748824094992143520
312425 54 11815351445380283245
4073 2 17988918981773012971
4340502 62 15769776870570603002
5104073 3 13038366807694341204
5385378 56 18059861696631800634
559249 180 8430599410918739151
5718773 13 9655279438037544769
5758199 1 18060136544368023515
9689198 14 18333728027055064957

> <PUBCHEM_SHAPE_MULTIPOLES>
486.92
23.92
2.06
1.16
15.3
0.17
0.08
-14.56
-3.5
2.42
0.34
-2.5
-0.23
0.49

> <PUBCHEM_SHAPE_SELFOVERLAP>
1030.887

> <PUBCHEM_SHAPE_VOLUME>
272.2

> <PUBCHEM_COORDINATE_TYPE>
2
5
10

$$$$

