3601
  -OEChem-06251223322D

 80 85  0     0  0  0  0  0  0999 V2000
    4.5274   -2.7500    0.0000 N   0  3  0  0  0  0  0  0  0  0  0  0
    7.1254    2.7500    0.0000 N   0  3  0  0  0  0  0  0  0  0  0  0
    4.5274   -3.7500    0.0000 C   0  0  0  0  0  0  0  0  0  0  0  0
    7.1254    3.7500    0.0000 C   0  0  0  0  0  0  0  0  0  0  0  0
    4.5274   -1.7500    0.0000 C   0  0  0  0  0  0  0  0  0  0  0  0
    7.1254    1.7500    0.0000 C   0  0  0  0  0  0  0  0  0  0  0  0
    5.3934   -1.2500    0.0000 C   0  0  0  0  0  0  0  0  0  0  0  0
    6.2594    1.2500    0.0000 C   0  0  0  0  0  0  0  0  0  0  0  0
    7.9344    4.3378    0.0000 C   0  0  0  0  0  0  0  0  0  0  0  0
    6.3164    4.3378    0.0000 C   0  0  0  0  0  0  0  0  0  0  0  0
    5.3364   -4.3378    0.0000 C   0  0  0  0  0  0  0  0  0  0  0  0
    3.7183   -4.3378    0.0000 C   0  0  0  0  0  0  0  0  0  0  0  0
    5.3934   -0.2500    0.0000 C   0  0  0  0  0  0  0  0  0  0  0  0
    6.2594    0.2500    0.0000 C   0  0  0  0  0  0  0  0  0  0  0  0
    8.1254    2.7500    0.0000 C   0  0  0  0  0  0  0  0  0  0  0  0
    6.1254    2.7500    0.0000 C   0  0  0  0  0  0  0  0  0  0  0  0
    5.5274   -2.7500    0.0000 C   0  0  0  0  0  0  0  0  0  0  0  0
    3.5274   -2.7500    0.0000 C   0  0  0  0  0  0  0  0  0  0  0  0
    5.0274   -5.2888    0.0000 C   0  0  0  0  0  0  0  0  0  0  0  0
    4.0274   -5.2888    0.0000 C   0  0  0  0  0  0  0  0  0  0  0  0
    6.6254    5.2888    0.0000 C   0  0  0  0  0  0  0  0  0  0  0  0
    7.6254    5.2888    0.0000 C   0  0  0  0  0  0  0  0  0  0  0  0
    6.3518   -4.1055    0.0000 C   0  0  0  0  0  0  0  0  0  0  0  0
    2.7029   -4.1055    0.0000 C   0  0  0  0  0  0  0  0  0  0  0  0
    5.3010    4.1055    0.0000 C   0  0  0  0  0  0  0  0  0  0  0  0
    8.9499    4.1055    0.0000 C   0  0  0  0  0  0  0  0  0  0  0  0
    5.7123   -6.0736    0.0000 C   0  0  0  0  0  0  0  0  0  0  0  0
    3.3424   -6.0736    0.0000 C   0  0  0  0  0  0  0  0  0  0  0  0
    5.9405    6.0736    0.0000 C   0  0  0  0  0  0  0  0  0  0  0  0
    8.3104    6.0736    0.0000 C   0  0  0  0  0  0  0  0  0  0  0  0
    7.0547   -4.8742    0.0000 C   0  0  0  0  0  0  0  0  0  0  0  0
    2.0000   -4.8742    0.0000 C   0  0  0  0  0  0  0  0  0  0  0  0
    4.5981    4.8742    0.0000 C   0  0  0  0  0  0  0  0  0  0  0  0
    9.6528    4.8742    0.0000 C   0  0  0  0  0  0  0  0  0  0  0  0
    9.3309    5.8649    0.0000 C   0  0  0  0  0  0  0  0  0  0  0  0
    4.9200    5.8649    0.0000 C   0  0  0  0  0  0  0  0  0  0  0  0
    2.3219   -5.8649    0.0000 C   0  0  0  0  0  0  0  0  0  0  0  0
    6.7328   -5.8649    0.0000 C   0  0  0  0  0  0  0  0  0  0  0  0
    5.0798   -3.4685    0.0000 H   0  0  0  0  0  0  0  0  0  0  0  0
    7.6779    3.4685    0.0000 H   0  0  0  0  0  0  0  0  0  0  0  0
    7.3375    1.1674    0.0000 H   0  0  0  0  0  0  0  0  0  0  0  0
    7.7360    1.8577    0.0000 H   0  0  0  0  0  0  0  0  0  0  0  0
    4.3153   -1.1674    0.0000 H   0  0  0  0  0  0  0  0  0  0  0  0
    3.9168   -1.8577    0.0000 H   0  0  0  0  0  0  0  0  0  0  0  0
    5.6054   -1.8326    0.0000 H   0  0  0  0  0  0  0  0  0  0  0  0
    6.0040   -1.1423    0.0000 H   0  0  0  0  0  0  0  0  0  0  0  0
    6.0474    1.8326    0.0000 H   0  0  0  0  0  0  0  0  0  0  0  0
    5.6488    1.1423    0.0000 H   0  0  0  0  0  0  0  0  0  0  0  0
    5.1813    0.3326    0.0000 H   0  0  0  0  0  0  0  0  0  0  0  0
    4.7828   -0.3577    0.0000 H   0  0  0  0  0  0  0  0  0  0  0  0
    6.4715   -0.3326    0.0000 H   0  0  0  0  0  0  0  0  0  0  0  0
    6.8700    0.3577    0.0000 H   0  0  0  0  0  0  0  0  0  0  0  0
    8.1254    2.1300    0.0000 H   0  0  0  0  0  0  0  0  0  0  0  0
    8.7454    2.7500    0.0000 H   0  0  0  0  0  0  0  0  0  0  0  0
    8.1254    3.3700    0.0000 H   0  0  0  0  0  0  0  0  0  0  0  0
    6.1254    3.3700    0.0000 H   0  0  0  0  0  0  0  0  0  0  0  0
    5.5054    2.7500    0.0000 H   0  0  0  0  0  0  0  0  0  0  0  0
    6.1254    2.1300    0.0000 H   0  0  0  0  0  0  0  0  0  0  0  0
    5.5274   -3.3700    0.0000 H   0  0  0  0  0  0  0  0  0  0  0  0
    6.1474   -2.7500    0.0000 H   0  0  0  0  0  0  0  0  0  0  0  0
    5.5274   -2.1300    0.0000 H   0  0  0  0  0  0  0  0  0  0  0  0
    3.5274   -2.1300    0.0000 H   0  0  0  0  0  0  0  0  0  0  0  0
    2.9074   -2.7500    0.0000 H   0  0  0  0  0  0  0  0  0  0  0  0
    3.5274   -3.3700    0.0000 H   0  0  0  0  0  0  0  0  0  0  0  0
    6.5365   -3.5137    0.0000 H   0  0  0  0  0  0  0  0  0  0  0  0
    2.5182   -3.5137    0.0000 H   0  0  0  0  0  0  0  0  0  0  0  0
    5.1162    3.5137    0.0000 H   0  0  0  0  0  0  0  0  0  0  0  0
    9.1346    3.5137    0.0000 H   0  0  0  0  0  0  0  0  0  0  0  0
    5.5139   -6.6610    0.0000 H   0  0  0  0  0  0  0  0  0  0  0  0
    3.5408   -6.6610    0.0000 H   0  0  0  0  0  0  0  0  0  0  0  0
    6.1389    6.6610    0.0000 H   0  0  0  0  0  0  0  0  0  0  0  0
    8.1120    6.6610    0.0000 H   0  0  0  0  0  0  0  0  0  0  0  0
    7.6607   -4.7430    0.0000 H   0  0  0  0  0  0  0  0  0  0  0  0
    1.3940   -4.7430    0.0000 H   0  0  0  0  0  0  0  0  0  0  0  0
    3.9921    4.7430    0.0000 H   0  0  0  0  0  0  0  0  0  0  0  0
   10.2587    4.7430    0.0000 H   0  0  0  0  0  0  0  0  0  0  0  0
    7.1459   -6.3272    0.0000 H   0  0  0  0  0  0  0  0  0  0  0  0
    1.9088   -6.3272    0.0000 H   0  0  0  0  0  0  0  0  0  0  0  0
    4.5069    6.3272    0.0000 H   0  0  0  0  0  0  0  0  0  0  0  0
    9.7440    6.3272    0.0000 H   0  0  0  0  0  0  0  0  0  0  0  0
  1  3  1  0  0  0  0
  1  5  1  0  0  0  0
  1 17  1  0  0  0  0
  1 18  1  0  0  0  0
  2  4  1  0  0  0  0
  2  6  1  0  0  0  0
  2 15  1  0  0  0  0
  2 16  1  0  0  0  0
  3 11  1  0  0  0  0
  3 12  1  0  0  0  0
  3 39  1  0  0  0  0
  4  9  1  0  0  0  0
  4 10  1  0  0  0  0
  4 40  1  0  0  0  0
  5  7  1  0  0  0  0
  5 43  1  0  0  0  0
  5 44  1  0  0  0  0
  6  8  1  0  0  0  0
  6 41  1  0  0  0  0
  6 42  1  0  0  0  0
  7 13  1  0  0  0  0
  7 45  1  0  0  0  0
  7 46  1  0  0  0  0
  8 14  1  0  0  0  0
  8 47  1  0  0  0  0
  8 48  1  0  0  0  0
  9 22  1  0  0  0  0
  9 26  2  0  0  0  0
 10 21  1  0  0  0  0
 10 25  2  0  0  0  0
 11 19  1  0  0  0  0
 11 23  2  0  0  0  0
 12 20  1  0  0  0  0
 12 24  2  0  0  0  0
 13 14  1  0  0  0  0
 13 49  1  0  0  0  0
 13 50  1  0  0  0  0
 14 51  1  0  0  0  0
 14 52  1  0  0  0  0
 15 53  1  0  0  0  0
 15 54  1  0  0  0  0
 15 55  1  0  0  0  0
 16 56  1  0  0  0  0
 16 57  1  0  0  0  0
 16 58  1  0  0  0  0
 17 59  1  0  0  0  0
 17 60  1  0  0  0  0
 17 61  1  0  0  0  0
 18 62  1  0  0  0  0
 18 63  1  0  0  0  0
 18 64  1  0  0  0  0
 19 20  1  0  0  0  0
 19 27  2  0  0  0  0
 20 28  2  0  0  0  0
 21 22  1  0  0  0  0
 21 29  2  0  0  0  0
 22 30  2  0  0  0  0
 23 31  1  0  0  0  0
 23 65  1  0  0  0  0
 24 32  1  0  0  0  0
 24 66  1  0  0  0  0
 25 33  1  0  0  0  0
 25 67  1  0  0  0  0
 26 34  1  0  0  0  0
 26 68  1  0  0  0  0
 27 38  1  0  0  0  0
 27 69  1  0  0  0  0
 28 37  1  0  0  0  0
 28 70  1  0  0  0  0
 29 36  1  0  0  0  0
 29 71  1  0  0  0  0
 30 35  1  0  0  0  0
 30 72  1  0  0  0  0
 31 38  2  0  0  0  0
 31 73  1  0  0  0  0
 32 37  2  0  0  0  0
 32 74  1  0  0  0  0
 33 36  2  0  0  0  0
 33 75  1  0  0  0  0
 34 35  2  0  0  0  0
 34 76  1  0  0  0  0
 35 80  1  0  0  0  0
 36 79  1  0  0  0  0
 37 78  1  0  0  0  0
 38 77  1  0  0  0  0
M  CHG  2   1   1   2   1
M  END
> <PUBCHEM_COMPOUND_CID>
3601

> <PUBCHEM_COMPOUND_CANONICALIZED>
1

> <PUBCHEM_CACTVS_COMPLEXITY>
663

> <PUBCHEM_CACTVS_HBOND_ACCEPTOR>
0

> <PUBCHEM_CACTVS_HBOND_DONOR>
0

> <PUBCHEM_CACTVS_ROTATABLE_BOND>
9

> <PUBCHEM_CACTVS_SUBSKEYS>
AAADcfB/AAAAAAAAAAAAAAAAAAAAAYMAAAAwYMGAAAAAAGABVAAAHAAAAAAADCjBGAQyAIMAAACAAiBCAACCAAAgAAAIiAAIBIgIICKAkRGEIAhggACIiAcQgMAOgAAAAAAQAAAAAAAAACAAASAACQAAAA==

> <PUBCHEM_IUPAC_OPENEYE_NAME>
9H-fluoren-9-yl-[6-[9H-fluoren-9-yl(dimethyl)ammonio]hexyl]-dimethyl-ammonium

> <PUBCHEM_IUPAC_CAS_NAME>
9H-fluoren-9-yl-[6-[9H-fluoren-9-yl(dimethyl)ammonio]hexyl]-dimethylammonium

> <PUBCHEM_IUPAC_NAME>
9H-fluoren-9-yl-[6-[9H-fluoren-9-yl(dimethyl)azaniumyl]hexyl]-dimethylazanium

> <PUBCHEM_IUPAC_SYSTEMATIC_NAME>
9H-fluoren-9-yl-[6-[9H-fluoren-9-yl(dimethyl)azaniumyl]hexyl]-dimethyl-azanium

> <PUBCHEM_IUPAC_TRADITIONAL_NAME>
9H-fluoren-9-yl-[6-[9H-fluoren-9-yl(dimethyl)ammonio]hexyl]-dimethyl-ammonium

> <PUBCHEM_IUPAC_INCHI>
InChI=1S/C36H42N2/c1-37(2,35-31-21-11-7-17-27(31)28-18-8-12-22-32(28)35)25-15-5-6-16-26-38(3,4)36-33-23-13-9-19-29(33)30-20-10-14-24-34(30)36/h7-14,17-24,35-36H,5-6,15-16,25-26H2,1-4H3/q+2

> <PUBCHEM_IUPAC_INCHIKEY>
HDZAQYPYABGTCL-UHFFFAOYSA-N

> <PUBCHEM_XLOGP3_AA>
7.6

> <PUBCHEM_EXACT_MASS>
502.334799

> <PUBCHEM_MOLECULAR_FORMULA>
C36H42N2+2

> <PUBCHEM_MOLECULAR_WEIGHT>
502.73208

> <PUBCHEM_OPENEYE_CAN_SMILES>
C[N+](C)(CCCCCC[N+](C)(C)C1C2=CC=CC=C2C3=CC=CC=C13)C4C5=CC=CC=C5C6=CC=CC=C46

> <PUBCHEM_OPENEYE_ISO_SMILES>
C[N+](C)(CCCCCC[N+](C)(C)C1C2=CC=CC=C2C3=CC=CC=C13)C4C5=CC=CC=C5C6=CC=CC=C46

> <PUBCHEM_CACTVS_TPSA>
0

> <PUBCHEM_MONOISOTOPIC_WEIGHT>
502.334799

> <PUBCHEM_TOTAL_CHARGE>
2

> <PUBCHEM_HEAVY_ATOM_COUNT>
38

> <PUBCHEM_ATOM_DEF_STEREO_COUNT>
0

> <PUBCHEM_ATOM_UDEF_STEREO_COUNT>
0

> <PUBCHEM_BOND_DEF_STEREO_COUNT>
0

> <PUBCHEM_BOND_UDEF_STEREO_COUNT>
0

> <PUBCHEM_ISOTOPIC_ATOM_COUNT>
0

> <PUBCHEM_COMPONENT_COUNT>
1

> <PUBCHEM_CACTVS_TAUTO_COUNT>
1

> <PUBCHEM_COORDINATE_TYPE>
1
5
255

> <PUBCHEM_BONDANNOTATIONS>
10  21  8
10  25  8
11  19  8
11  23  8
12  20  8
12  24  8
19  27  8
20  28  8
21  29  8
22  30  8
23  31  8
24  32  8
25  33  8
26  34  8
27  38  8
28  37  8
29  36  8
30  35  8
31  38  8
32  37  8
33  36  8
34  35  8
9  22  8
9  26  8

$$$$

