10327
  -OEChem-06261204283D

 17 18  0     0  0  0  0  0  0999 V2000
    2.4438   -0.0001   -0.1252 O   0  0  0  0  0  0  0  0  0  0  0  0
    0.2370    0.6936    0.0186 C   0  0  0  0  0  0  0  0  0  0  0  0
    0.2369   -0.6936    0.0185 C   0  0  0  0  0  0  0  0  0  0  0  0
    1.6339    1.1854    0.0638 C   0  0  0  0  0  0  0  0  0  0  0  0
    1.6339   -1.1854    0.0637 C   0  0  0  0  0  0  0  0  0  0  0  0
   -0.9451    1.4119    0.0018 C   0  0  0  0  0  0  0  0  0  0  0  0
   -0.9453   -1.4118    0.0019 C   0  0  0  0  0  0  0  0  0  0  0  0
   -2.1475    0.7019   -0.0216 C   0  0  0  0  0  0  0  0  0  0  0  0
   -2.1476   -0.7019   -0.0215 C   0  0  0  0  0  0  0  0  0  0  0  0
    1.8567    1.8885   -0.7429 H   0  0  0  0  0  0  0  0  0  0  0  0
    1.8786    1.6235    1.0357 H   0  0  0  0  0  0  0  0  0  0  0  0
    1.8785   -1.6237    1.0355 H   0  0  0  0  0  0  0  0  0  0  0  0
    1.8567   -1.8886   -0.7431 H   0  0  0  0  0  0  0  0  0  0  0  0
   -0.9443    2.4964    0.0077 H   0  0  0  0  0  0  0  0  0  0  0  0
   -0.9445   -2.4964    0.0079 H   0  0  0  0  0  0  0  0  0  0  0  0
   -3.0918    1.2392   -0.0367 H   0  0  0  0  0  0  0  0  0  0  0  0
   -3.0919   -1.2392   -0.0366 H   0  0  0  0  0  0  0  0  0  0  0  0
  1  4  1  0  0  0  0
  1  5  1  0  0  0  0
  2  3  1  0  0  0  0
  2  4  1  0  0  0  0
  2  6  2  0  0  0  0
  3  5  1  0  0  0  0
  3  7  2  0  0  0  0
  4 10  1  0  0  0  0
  4 11  1  0  0  0  0
  5 12  1  0  0  0  0
  5 13  1  0  0  0  0
  6  8  1  0  0  0  0
  6 14  1  0  0  0  0
  7  9  1  0  0  0  0
  7 15  1  0  0  0  0
  8  9  2  0  0  0  0
  8 16  1  0  0  0  0
  9 17  1  0  0  0  0
M  END
> <PUBCHEM_COMPOUND_CID>
10327

> <PUBCHEM_CONFORMER_RMSD>
0.4

> <PUBCHEM_CONFORMER_DIVERSEORDER>
1

> <PUBCHEM_MMFF94_PARTIAL_CHARGES>
13
1 -0.56
14 0.15
15 0.15
16 0.15
17 0.15
2 -0.14
3 -0.14
4 0.42
5 0.42
6 -0.15
7 -0.15
8 -0.15
9 -0.15

> <PUBCHEM_EFFECTIVE_ROTOR_COUNT>
0.6

> <PUBCHEM_PHARMACOPHORE_FEATURES>
3
1 1 acceptor
5 1 2 3 4 5 rings
6 2 3 6 7 8 9 rings

> <PUBCHEM_HEAVY_ATOM_COUNT>
9

> <PUBCHEM_ATOM_DEF_STEREO_COUNT>
0

> <PUBCHEM_ATOM_UDEF_STEREO_COUNT>
0

> <PUBCHEM_BOND_DEF_STEREO_COUNT>
0

> <PUBCHEM_BOND_UDEF_STEREO_COUNT>
0

> <PUBCHEM_ISOTOPIC_ATOM_COUNT>
0

> <PUBCHEM_COMPONENT_COUNT>
1

> <PUBCHEM_CACTVS_TAUTO_COUNT>
1

> <PUBCHEM_CONFORMER_ID>
0000285700000001

> <PUBCHEM_MMFF94_ENERGY>
26.3791

> <PUBCHEM_FEATURE_SELFOVERLAP>
15.307

> <PUBCHEM_SHAPE_FINGERPRINT>
12897270 3 18410856525290633364
16945 1 18410575084663078915
18185500 45 18266742385276552839
21040471 1 18410857706417267056
23552423 10 18272086080570376438
241688 4 18412547578664429017
2748010 2 18266459793624059087
29004967 10 18271520892828087859
369184 2 18410579487030937667
5084963 1 18260832630530969035

> <PUBCHEM_SHAPE_MULTIPOLES>
179.35
2.98
1.61
0.61
0.23
0
0
0
-0.05
-0.07
0.02
-0.02
0
0

> <PUBCHEM_SHAPE_SELFOVERLAP>
388.254

> <PUBCHEM_SHAPE_VOLUME>
101.2

> <PUBCHEM_COORDINATE_TYPE>
2
5
10

$$$$

