10625
  -OEChem-06261204463D

 28 29  0     0  0  0  0  0  0999 V2000
    0.0617   -0.9816    0.4946 N   0  0  0  0  0  0  0  0  0  0  0  0
    1.8704   -2.1020   -0.1096 N   0  0  0  0  0  0  0  0  0  0  0  0
    3.2665   -0.1592   -0.5417 N   0  0  0  0  0  0  0  0  0  0  0  0
    2.1430    1.9705   -0.1492 N   0  0  0  0  0  0  0  0  0  0  0  0
   -0.1257    2.1042    0.5933 N   0  0  0  0  0  0  0  0  0  0  0  0
   -1.3123   -0.7645    0.9460 C   0  0  0  0  0  0  0  0  0  0  0  0
    0.9816   -0.0302    0.2057 C   0  0  0  0  0  0  0  0  0  0  0  0
    2.1064   -0.7522   -0.1703 C   0  0  0  0  0  0  0  0  0  0  0  0
    0.6229   -2.2037    0.2966 C   0  0  0  0  0  0  0  0  0  0  0  0
   -2.2607   -0.6672   -0.2116 C   0  0  0  0  0  0  0  0  0  0  0  0
    0.9987    1.3506    0.2170 C   0  0  0  0  0  0  0  0  0  0  0  0
   -3.3882    0.0641   -0.2992 C   0  0  0  0  0  0  0  0  0  0  0  0
   -4.2046    0.0553   -1.5646 C   0  0  0  0  0  0  0  0  0  0  0  0
   -3.9512    0.9272    0.7938 C   0  0  0  0  0  0  0  0  0  0  0  0
    3.1915    1.1886   -0.5009 C   0  0  0  0  0  0  0  0  0  0  0  0
   -1.5785   -1.6587    1.5252 H   0  0  0  0  0  0  0  0  0  0  0  0
   -1.3306    0.0617    1.6559 H   0  0  0  0  0  0  0  0  0  0  0  0
    0.0907   -3.1316    0.4577 H   0  0  0  0  0  0  0  0  0  0  0  0
   -1.9930   -1.2716   -1.0786 H   0  0  0  0  0  0  0  0  0  0  0  0
   -4.2853    1.0695   -1.9694 H   0  0  0  0  0  0  0  0  0  0  0  0
   -3.7648   -0.5775   -2.3426 H   0  0  0  0  0  0  0  0  0  0  0  0
   -5.2131   -0.3200   -1.3625 H   0  0  0  0  0  0  0  0  0  0  0  0
   -3.9509    1.9771    0.4834 H   0  0  0  0  0  0  0  0  0  0  0  0
   -4.9823    0.6319    1.0150 H   0  0  0  0  0  0  0  0  0  0  0  0
   -3.3883    0.8551    1.7278 H   0  0  0  0  0  0  0  0  0  0  0  0
    4.0934    1.7181   -0.7889 H   0  0  0  0  0  0  0  0  0  0  0  0
   -0.0423    3.1127    0.5746 H   0  0  0  0  0  0  0  0  0  0  0  0
   -1.0380    1.7017    0.7218 H   0  0  0  0  0  0  0  0  0  0  0  0
  1  6  1  0  0  0  0
  1  7  1  0  0  0  0
  1  9  1  0  0  0  0
  2  8  1  0  0  0  0
  2  9  2  0  0  0  0
  3  8  2  0  0  0  0
  3 15  1  0  0  0  0
  4 11  1  0  0  0  0
  4 15  2  0  0  0  0
  5 11  1  0  0  0  0
  5 27  1  0  0  0  0
  5 28  1  0  0  0  0
  6 10  1  0  0  0  0
  6 16  1  0  0  0  0
  6 17  1  0  0  0  0
  7  8  1  0  0  0  0
  7 11  2  0  0  0  0
  9 18  1  0  0  0  0
 10 12  2  0  0  0  0
 10 19  1  0  0  0  0
 12 13  1  0  0  0  0
 12 14  1  0  0  0  0
 13 20  1  0  0  0  0
 13 21  1  0  0  0  0
 13 22  1  0  0  0  0
 14 23  1  0  0  0  0
 14 24  1  0  0  0  0
 14 25  1  0  0  0  0
 15 26  1  0  0  0  0
M  END
> <PUBCHEM_COMPOUND_CID>
10625

> <PUBCHEM_CONFORMER_RMSD>
0.6

> <PUBCHEM_CONFORMER_DIVERSEORDER>
4
6
8
10
1
9
7
5
3
2

> <PUBCHEM_MMFF94_PARTIAL_CHARGES>
20
1 0.05
10 -0.29
11 0.41
12 -0.28
13 0.14
14 0.14
15 0.47
18 0.15
19 0.15
2 -0.57
26 0.15
27 0.4
28 0.4
3 -0.57
4 -0.62
5 -0.9
6 0.39
7 -0.15
8 0.48
9 0.04

> <PUBCHEM_EFFECTIVE_ROTOR_COUNT>
2

> <PUBCHEM_PHARMACOPHORE_FEATURES>
8
1 5 cation
1 5 donor
3 1 2 9 cation
3 12 13 14 hydrophobe
3 2 3 8 cation
3 3 4 15 cation
5 1 2 7 8 9 rings
6 3 4 7 8 11 15 rings

> <PUBCHEM_HEAVY_ATOM_COUNT>
15

> <PUBCHEM_ATOM_DEF_STEREO_COUNT>
0

> <PUBCHEM_ATOM_UDEF_STEREO_COUNT>
0

> <PUBCHEM_BOND_DEF_STEREO_COUNT>
0

> <PUBCHEM_BOND_UDEF_STEREO_COUNT>
0

> <PUBCHEM_ISOTOPIC_ATOM_COUNT>
0

> <PUBCHEM_COMPONENT_COUNT>
1

> <PUBCHEM_CACTVS_TAUTO_COUNT>
3

> <PUBCHEM_CONFORMER_ID>
0000298100000004

> <PUBCHEM_MMFF94_ENERGY>
27.9808

> <PUBCHEM_FEATURE_SELFOVERLAP>
41.26

> <PUBCHEM_SHAPE_FINGERPRINT>
10498660 4 17058952111534955493
10980938 120 18410578400557296439
11031198 65 18342733009822071895
11471102 20 18412546526196831855
11543360 7 16081365198638737536
116883 192 17682672174932242239
12654215 9 18342742909763737700
12730499 353 18273496771859902115
13897977 150 18341610378390460265
14250199 8 18410579487611446365
14251717 144 18409455786374333951
14617773 55 17897150527991713304
15442244 35 18048311434018027073
15775835 57 18409726236291165727
16945 1 18337938052783085794
18186145 218 18342452642883438207
18219364 16 18201714029679253953
20201158 50 18413671322423731787
20606313 2 18411985766708522878
20645477 70 18338521936528661119
21524375 3 18199754639301779947
21639500 275 18411145714345073223
22289505 5 18269290108917415645
231179 274 17632306665526202917
23402539 116 18259984886065877510
23402655 69 18335987544983276277
23419403 2 17548469015925488578
23493267 7 17560511782111559328
23557571 272 17132109139885615117
23559900 14 18190447274522968068
23598291 2 17969223498645654255
238 59 17839505251172411965
25 1 18341889684276882651
2748010 2 18049143485469190986
3060560 45 18335991908190183311
3082319 5 18040440992774681847
4072396 5 18270417061096247506
77492 1 17749103422358768099
7832392 63 18260266391139365065
84936 182 17968942980850883464

> <PUBCHEM_SHAPE_MULTIPOLES>
283.79
6.58
2.11
0.97
5.57
0.1
-0.16
-1.62
-1.99
-1.43
0.26
0.89
-0.05
-0.25

> <PUBCHEM_SHAPE_SELFOVERLAP>
601.947

> <PUBCHEM_SHAPE_VOLUME>
157.7

> <PUBCHEM_COORDINATE_TYPE>
2
5
10

$$$$

