17395296
  -OEChem-06241222493D

 37 38  0     1  0  0  0  0  0999 V2000
   -7.2610    1.7296   -0.3065 Cl  0  0  0  0  0  0  0  0  0  0  0  0
    5.7552    1.1530   -1.2337 S   0  0  0  0  0  0  0  0  0  0  0  0
   -0.9506   -0.1405    0.0900 O   0  0  0  0  0  0  0  0  0  0  0  0
    1.0223    1.6173    0.6039 O   0  0  0  0  0  0  0  0  0  0  0  0
   -1.7915   -2.2371   -0.3543 O   0  0  0  0  0  0  0  0  0  0  0  0
    2.6581   -0.0309    0.4692 N   0  0  0  0  0  0  0  0  0  0  0  0
   -4.3803   -2.4084    0.5897 N   0  0  0  0  0  0  0  0  0  0  0  0
    3.8028    0.8122    0.7276 C   0  0  2  0  0  0  0  0  0  0  0  0
    5.0175    0.2503    0.0205 C   0  0  0  0  0  0  0  0  0  0  0  0
    4.0205    0.9863    2.2270 C   0  0  0  0  0  0  0  0  0  0  0  0
    5.6605   -0.9476    0.2423 C   0  0  0  0  0  0  0  0  0  0  0  0
    1.3584    0.4491    0.4297 C   0  0  0  0  0  0  0  0  0  0  0  0
    0.3634   -0.6542    0.1387 C   0  0  0  0  0  0  0  0  0  0  0  0
    6.7736   -1.1267   -0.6289 C   0  0  0  0  0  0  0  0  0  0  0  0
    6.9389   -0.0588   -1.4833 C   0  0  0  0  0  0  0  0  0  0  0  0
   -3.2740   -0.3766   -0.1926 C   0  0  0  0  0  0  0  0  0  0  0  0
   -4.4333   -1.0583    0.1771 C   0  0  0  0  0  0  0  0  0  0  0  0
   -1.9460   -1.0403   -0.1664 C   0  0  0  0  0  0  0  0  0  0  0  0
   -3.3475    0.9562   -0.5972 C   0  0  0  0  0  0  0  0  0  0  0  0
   -5.6664   -0.4072    0.1422 C   0  0  0  0  0  0  0  0  0  0  0  0
   -4.5805    1.6072   -0.6324 C   0  0  0  0  0  0  0  0  0  0  0  0
   -5.7400    0.9255   -0.2627 C   0  0  0  0  0  0  0  0  0  0  0  0
    3.5709    1.8053    0.3208 H   0  0  0  0  0  0  0  0  0  0  0  0
    2.8101   -1.0294    0.3536 H   0  0  0  0  0  0  0  0  0  0  0  0
    4.1919    0.0242    2.7234 H   0  0  0  0  0  0  0  0  0  0  0  0
    3.1454    1.4452    2.7000 H   0  0  0  0  0  0  0  0  0  0  0  0
    4.8876    1.6254    2.4266 H   0  0  0  0  0  0  0  0  0  0  0  0
    5.3519   -1.6659    0.9912 H   0  0  0  0  0  0  0  0  0  0  0  0
    0.4395   -1.4062    0.9329 H   0  0  0  0  0  0  0  0  0  0  0  0
    0.6214   -1.1071   -0.8258 H   0  0  0  0  0  0  0  0  0  0  0  0
    7.4201   -1.9946   -0.6291 H   0  0  0  0  0  0  0  0  0  0  0  0
    7.6982    0.0676   -2.2421 H   0  0  0  0  0  0  0  0  0  0  0  0
   -2.4647    1.5108   -0.9043 H   0  0  0  0  0  0  0  0  0  0  0  0
   -6.5704   -0.9395    0.4306 H   0  0  0  0  0  0  0  0  0  0  0  0
   -4.6235    2.6451   -0.9528 H   0  0  0  0  0  0  0  0  0  0  0  0
   -5.2318   -2.8849    0.8565 H   0  0  0  0  0  0  0  0  0  0  0  0
   -3.4994   -2.9012    0.6376 H   0  0  0  0  0  0  0  0  0  0  0  0
  1 22  1  0  0  0  0
  2  9  1  0  0  0  0
  2 15  1  0  0  0  0
  3 13  1  0  0  0  0
  3 18  1  0  0  0  0
  4 12  2  0  0  0  0
  5 18  2  0  0  0  0
  6  8  1  0  0  0  0
  6 12  1  0  0  0  0
  6 24  1  0  0  0  0
  7 17  1  0  0  0  0
  7 36  1  0  0  0  0
  7 37  1  0  0  0  0
  8  9  1  0  0  0  0
  8 10  1  0  0  0  0
  8 23  1  0  0  0  0
  9 11  2  0  0  0  0
 10 25  1  0  0  0  0
 10 26  1  0  0  0  0
 10 27  1  0  0  0  0
 11 14  1  0  0  0  0
 11 28  1  0  0  0  0
 12 13  1  0  0  0  0
 13 29  1  0  0  0  0
 13 30  1  0  0  0  0
 14 15  2  0  0  0  0
 14 31  1  0  0  0  0
 15 32  1  0  0  0  0
 16 17  2  0  0  0  0
 16 18  1  0  0  0  0
 16 19  1  0  0  0  0
 17 20  1  0  0  0  0
 19 21  2  0  0  0  0
 19 33  1  0  0  0  0
 20 22  2  0  0  0  0
 20 34  1  0  0  0  0
 21 22  1  0  0  0  0
 21 35  1  0  0  0  0
M  END
> <PUBCHEM_COMPOUND_CID>
17395296

> <PUBCHEM_CONFORMER_RMSD>
1.2

> <PUBCHEM_CONFORMER_DIVERSEORDER>
1
98
67
69
33
61
71
5
94
81
39
27
100
49
19
87
28
44
66
31
104
52
50
86
88
35
57
6
46
76
25
56
13
92
97
91
90
102
37
79
54
55
3
74
21
32
38
2
103
17
40
34
30
84
10
22
14
68
7
85
96
65
15
73
77
53
82
24
63
4
41
80
60
62
8
78
89
75
45
72
59
58
95
83
101
29
18
9
26
99
93
70
20
16
36
23
42
12
47
11
51
64
48
43

> <PUBCHEM_MMFF94_PARTIAL_CHARGES>
30
1 -0.18
11 -0.15
12 0.57
13 0.34
14 -0.15
15 -0.11
16 0.09
17 0.1
18 0.63
19 -0.15
2 -0.08
20 -0.15
21 -0.15
22 0.18
24 0.37
28 0.15
3 -0.43
31 0.15
32 0.15
33 0.15
34 0.15
35 0.15
36 0.4
37 0.4
4 -0.57
5 -0.57
6 -0.73
7 -0.9
8 0.48
9 -0.14

> <PUBCHEM_EFFECTIVE_ROTOR_COUNT>
7

> <PUBCHEM_PHARMACOPHORE_FEATURES>
7
1 4 acceptor
1 5 acceptor
1 6 donor
1 7 cation
1 7 donor
5 2 9 11 14 15 rings
6 16 17 19 20 21 22 rings

> <PUBCHEM_HEAVY_ATOM_COUNT>
22

> <PUBCHEM_ATOM_DEF_STEREO_COUNT>
0

> <PUBCHEM_ATOM_UDEF_STEREO_COUNT>
1

> <PUBCHEM_BOND_DEF_STEREO_COUNT>
0

> <PUBCHEM_BOND_UDEF_STEREO_COUNT>
0

> <PUBCHEM_ISOTOPIC_ATOM_COUNT>
0

> <PUBCHEM_COMPONENT_COUNT>
1

> <PUBCHEM_CACTVS_TAUTO_COUNT>
4

> <PUBCHEM_CONFORMER_ID>
01096E6000000001

> <PUBCHEM_MMFF94_ENERGY>
52.9096

> <PUBCHEM_FEATURE_SELFOVERLAP>
35.52

> <PUBCHEM_SHAPE_FINGERPRINT>
10 15 17561080337403671793
10299344 5 17846779620154595986
10638233 991 16702017561235826460
106641 1 14692561127336188553
10912923 1 17060069128826709808
11315181 36 17676486138284500417
11524674 6 17385442103272064807
11724838 91 9583509907403093850
11796584 16 18333729101256403102
12166972 35 18335699408053827880
12236239 1 17632577145296861044
12596602 18 15626229052175692009
12616971 3 14851881418039868266
13668630 136 15936410039576983892
13782708 43 17823138913235204855
13914758 101 15647047205335418321
13964095 4 18411133654224605702
14251732 16 9439398026061795694
14251752 14 18412544336248788014
14251757 52 17917711297032342564
14251758 9 17603305947095662158
14251764 18 17775567533642068771
146900 427 15841837742053809568
14933364 13 18273492373190743036
15183329 4 18260544554500767272
15338160 23 15051465971790259119
15461852 350 18341899576778666471
15716309 27 11167940255856460033
15778101 99 18411698807934151553
1768 4 13901610902271278350
17834072 8 18186521012171204444
17844677 252 18339356371079869872
17857418 61 5617538488723406780
190975 80 11743828162733758965
20281389 69 18202569496432701316
21033648 29 18115603559840540936
21267235 1 18342735170934394299
21365058 27 16200425884061675322
21585482 111 18047186634663374321
220451 1 16988849375418063035
22061861 79 17385723591053983676
2215653 11 17749107794772495518
22224240 67 14189570841132635849
2297311 6 18412542098481337861
2303208 19 18187360978809505234
23081809 10 17131844148286706474
23198884 109 17418372493318078954
23536379 177 18202844357670998294
23559900 14 17822580408693747920
29717793 49 16008746910006300744
3004659 81 18413669124339492542
3014965 18 18113900498477014470
335352 9 18411984668125498669
3545911 37 18409732876479410217
4073 2 17846772984298638682
4340502 62 10879995757566451376
44062 13 18115308865071031174
54076057 127 15626222447085359352
54076057 255 17846212242359561348
542803 24 17489591151752788154
6328613 192 18271802406438963924
8988823 20 14996008740274074090

> <PUBCHEM_SHAPE_MULTIPOLES>
430.9
21.41
1.84
1.17
5.44
0.48
-0.34
-3.36
5.2
-2.21
0.03
2.2
-0.37
0.91

> <PUBCHEM_SHAPE_SELFOVERLAP>
886.157

> <PUBCHEM_SHAPE_VOLUME>
249.5

> <PUBCHEM_COORDINATE_TYPE>
2
5
10

$$$$

