12831
  -OEChem-06261207253D

 28 29  0     0  0  0  0  0  0999 V2000
    0.0022   -1.6645    0.9248 O   0  0  0  0  0  0  0  0  0  0  0  0
    1.6338    2.4505   -0.3372 O   0  0  0  0  0  0  0  0  0  0  0  0
    2.6369   -1.9008   -0.7759 O   0  0  0  0  0  0  0  0  0  0  0  0
   -0.4961    1.5053   -0.4009 N   0  0  0  0  0  0  0  0  0  0  0  0
    1.1827    0.2790    0.4025 N   0  0  0  0  0  0  0  0  0  0  0  0
   -1.1363    0.2623   -0.0468 C   0  0  0  0  0  0  0  0  0  0  0  0
   -1.7716   -0.4361   -1.2515 C   0  0  0  0  0  0  0  0  0  0  0  0
   -2.2373    0.4328    1.0062 C   0  0  0  0  0  0  0  0  0  0  0  0
   -3.0459   -1.0567   -0.6945 C   0  0  0  0  0  0  0  0  0  0  0  0
   -3.5192   -0.0270    0.3175 C   0  0  0  0  0  0  0  0  0  0  0  0
    0.0638   -0.5200    0.4939 C   0  0  0  0  0  0  0  0  0  0  0  0
    0.8728    1.5138   -0.1319 C   0  0  0  0  0  0  0  0  0  0  0  0
    2.5147   -0.1123    0.8194 C   0  0  0  0  0  0  0  0  0  0  0  0
    3.2996   -0.7263   -0.3255 C   0  0  0  0  0  0  0  0  0  0  0  0
   -1.1266   -1.1938   -1.7088 H   0  0  0  0  0  0  0  0  0  0  0  0
   -2.0334    0.2909   -2.0308 H   0  0  0  0  0  0  0  0  0  0  0  0
   -2.3397    1.4649    1.3592 H   0  0  0  0  0  0  0  0  0  0  0  0
   -2.0513   -0.1959    1.8852 H   0  0  0  0  0  0  0  0  0  0  0  0
   -2.8203   -2.0060   -0.1947 H   0  0  0  0  0  0  0  0  0  0  0  0
   -3.7893   -1.2469   -1.4738 H   0  0  0  0  0  0  0  0  0  0  0  0
   -3.9903    0.8183   -0.1982 H   0  0  0  0  0  0  0  0  0  0  0  0
   -4.2442   -0.4398    1.0250 H   0  0  0  0  0  0  0  0  0  0  0  0
   -0.9875    2.2981   -0.8020 H   0  0  0  0  0  0  0  0  0  0  0  0
    2.4144   -0.8412    1.6311 H   0  0  0  0  0  0  0  0  0  0  0  0
    3.0414    0.7708    1.1958 H   0  0  0  0  0  0  0  0  0  0  0  0
    4.3023   -1.0088    0.0083 H   0  0  0  0  0  0  0  0  0  0  0  0
    3.3976   -0.0363   -1.1700 H   0  0  0  0  0  0  0  0  0  0  0  0
    1.7997   -1.6250   -1.1858 H   0  0  0  0  0  0  0  0  0  0  0  0
  1 11  2  0  0  0  0
  2 12  2  0  0  0  0
  3 14  1  0  0  0  0
  3 28  1  0  0  0  0
  4  6  1  0  0  0  0
  4 12  1  0  0  0  0
  4 23  1  0  0  0  0
  5 11  1  0  0  0  0
  5 12  1  0  0  0  0
  5 13  1  0  0  0  0
  6  7  1  0  0  0  0
  6  8  1  0  0  0  0
  6 11  1  0  0  0  0
  7  9  1  0  0  0  0
  7 15  1  0  0  0  0
  7 16  1  0  0  0  0
  8 10  1  0  0  0  0
  8 17  1  0  0  0  0
  8 18  1  0  0  0  0
  9 10  1  0  0  0  0
  9 19  1  0  0  0  0
  9 20  1  0  0  0  0
 10 21  1  0  0  0  0
 10 22  1  0  0  0  0
 13 14  1  0  0  0  0
 13 24  1  0  0  0  0
 13 25  1  0  0  0  0
 14 26  1  0  0  0  0
 14 27  1  0  0  0  0
M  END
> <PUBCHEM_COMPOUND_CID>
12831

> <PUBCHEM_CONFORMER_RMSD>
0.6

> <PUBCHEM_CONFORMER_DIVERSEORDER>
1
7
8
2
5
6
3
4

> <PUBCHEM_MMFF94_PARTIAL_CHARGES>
12
1 -0.57
11 0.57
12 0.69
13 0.3
14 0.28
2 -0.57
23 0.37
28 0.4
3 -0.68
4 -0.73
5 -0.42
6 0.36

> <PUBCHEM_EFFECTIVE_ROTOR_COUNT>
3.2

> <PUBCHEM_PHARMACOPHORE_FEATURES>
7
1 1 acceptor
1 2 acceptor
1 3 acceptor
1 3 donor
1 4 donor
5 4 5 6 11 12 rings
5 6 7 8 9 10 rings

> <PUBCHEM_HEAVY_ATOM_COUNT>
14

> <PUBCHEM_ATOM_DEF_STEREO_COUNT>
0

> <PUBCHEM_ATOM_UDEF_STEREO_COUNT>
0

> <PUBCHEM_BOND_DEF_STEREO_COUNT>
0

> <PUBCHEM_BOND_UDEF_STEREO_COUNT>
0

> <PUBCHEM_ISOTOPIC_ATOM_COUNT>
0

> <PUBCHEM_COMPONENT_COUNT>
1

> <PUBCHEM_CACTVS_TAUTO_COUNT>
2

> <PUBCHEM_CONFORMER_ID>
0000321F00000001

> <PUBCHEM_MMFF94_ENERGY>
21.4853

> <PUBCHEM_FEATURE_SELFOVERLAP>
35.534

> <PUBCHEM_SHAPE_FINGERPRINT>
10353120 184 18272931669304672844
11206711 2 17988651851406243741
11769659 78 17749399173474623631
12423570 1 10072826498656043777
12524768 44 18199469874495996096
12932764 1 17203058404342903523
13380535 21 17842262680010598968
13380535 76 18053952744870741600
13581323 91 17240204317960349823
15219459 52 18337110059923035670
16945 1 18201449081325241587
18186145 218 18130235873831713213
18511873 20 18260541268814018585
19422 9 18188489073766239871
20361792 2 18340775922021322246
20645477 70 18268159673504067639
207724 885 18261108612434541959
20871998 22 18337674217094394498
21501502 16 18053945052310014210
23402539 116 18341619278122029182
23419403 2 14070505439793078912
23552423 10 18335987480221078647
2748010 2 18197516201373997588
369184 2 16298394547597176315
449060 23 18334862748360782703
5084963 1 18335146366726510737
53812653 11 18272927206992141803
7364860 26 18261956220004362936
77492 1 18114461154822752553
81228 2 18053955231673078376

> <PUBCHEM_SHAPE_MULTIPOLES>
260.54
5.09
1.79
1.02
0.28
0.49
0
-1.58
0.27
-1.11
0.32
0.25
-0.16
-0.16

> <PUBCHEM_SHAPE_SELFOVERLAP>
545.378

> <PUBCHEM_SHAPE_VOLUME>
150.7

> <PUBCHEM_COORDINATE_TYPE>
2
5
10

$$$$

