13202
  -OEChem-06261207533D

 18 18  0     1  0  0  0  0  0999 V2000
   -2.0307   -1.1318    0.7596 Cl  0  0  0  0  0  0  0  0  0  0  0  0
    2.0316   -1.1305   -0.7594 Cl  0  0  0  0  0  0  0  0  0  0  0  0
   -0.6630   -0.9040   -0.3866 C   0  0  2  0  0  0  0  0  0  0  0  0
    0.6639   -0.9033    0.3867 C   0  0  2  0  0  0  0  0  0  0  0  0
   -0.8767    0.3840   -1.1917 C   0  0  0  0  0  0  0  0  0  0  0  0
    0.8764    0.3849    1.1916 C   0  0  0  0  0  0  0  0  0  0  0  0
   -0.6739    1.6500   -0.3589 C   0  0  0  0  0  0  0  0  0  0  0  0
    0.6724    1.6507    0.3588 C   0  0  0  0  0  0  0  0  0  0  0  0
   -0.7105   -1.7655   -1.0615 H   0  0  0  0  0  0  0  0  0  0  0  0
    0.7120   -1.7648    1.0618 H   0  0  0  0  0  0  0  0  0  0  0  0
   -1.8799    0.3951   -1.6353 H   0  0  0  0  0  0  0  0  0  0  0  0
   -0.1737    0.4031   -2.0339 H   0  0  0  0  0  0  0  0  0  0  0  0
    1.8796    0.3970    1.6352 H   0  0  0  0  0  0  0  0  0  0  0  0
    0.1734    0.4034    2.0338 H   0  0  0  0  0  0  0  0  0  0  0  0
   -1.4801    1.7465    0.3779 H   0  0  0  0  0  0  0  0  0  0  0  0
   -0.7408    2.5292   -1.0102 H   0  0  0  0  0  0  0  0  0  0  0  0
    1.4785    1.7480   -0.3780 H   0  0  0  0  0  0  0  0  0  0  0  0
    0.7384    2.5299    1.0100 H   0  0  0  0  0  0  0  0  0  0  0  0
  1  3  1  0  0  0  0
  2  4  1  0  0  0  0
  3  4  1  0  0  0  0
  3  5  1  0  0  0  0
  3  9  1  0  0  0  0
  4  6  1  0  0  0  0
  4 10  1  0  0  0  0
  5  7  1  0  0  0  0
  5 11  1  0  0  0  0
  5 12  1  0  0  0  0
  6  8  1  0  0  0  0
  6 13  1  0  0  0  0
  6 14  1  0  0  0  0
  7  8  1  0  0  0  0
  7 15  1  0  0  0  0
  7 16  1  0  0  0  0
  8 17  1  0  0  0  0
  8 18  1  0  0  0  0
M  END
> <PUBCHEM_COMPOUND_CID>
13202

> <PUBCHEM_CONFORMER_RMSD>
0.4

> <PUBCHEM_CONFORMER_DIVERSEORDER>
1
5
2
6
3
4

> <PUBCHEM_MMFF94_PARTIAL_CHARGES>
4
1 -0.29
2 -0.29
3 0.29
4 0.29

> <PUBCHEM_EFFECTIVE_ROTOR_COUNT>
1.2

> <PUBCHEM_PHARMACOPHORE_FEATURES>
1
6 3 4 5 6 7 8 rings

> <PUBCHEM_HEAVY_ATOM_COUNT>
8

> <PUBCHEM_ATOM_DEF_STEREO_COUNT>
0

> <PUBCHEM_ATOM_UDEF_STEREO_COUNT>
2

> <PUBCHEM_BOND_DEF_STEREO_COUNT>
0

> <PUBCHEM_BOND_UDEF_STEREO_COUNT>
0

> <PUBCHEM_ISOTOPIC_ATOM_COUNT>
0

> <PUBCHEM_COMPONENT_COUNT>
1

> <PUBCHEM_CACTVS_TAUTO_COUNT>
1

> <PUBCHEM_CONFORMER_ID>
0000339200000001

> <PUBCHEM_MMFF94_ENERGY>
5.663

> <PUBCHEM_FEATURE_SELFOVERLAP>
5.074

> <PUBCHEM_SHAPE_FINGERPRINT>
12423570 1 9243168644960381086
13024252 1 14258771933873183910
137420 1 10547779864625346894
18185500 45 14950129847229196683
21040471 1 17546464717448893716
29004967 10 18334290950969962402
5084963 1 17187591346230235683
5943 1 15094537492344437927

> <PUBCHEM_SHAPE_MULTIPOLES>
168.38
2.13
1.87
1.19
0
0.61
0
-1.1
0
0
0
0
0.02
0.56

> <PUBCHEM_SHAPE_SELFOVERLAP>
306.302

> <PUBCHEM_SHAPE_VOLUME>
106.8

> <PUBCHEM_COORDINATE_TYPE>
2
5
10

$$$$

