13305
  -OEChem-06261208463D

 43 43  0     0  0  0  0  0  0999 V2000
    0.0098   -3.6083   -0.0007 S   0  0  0  0  0  0  0  0  0  0  0  0
    7.2238    1.4493    0.0226 O   0  0  0  0  0  0  0  0  0  0  0  0
   -6.9870    1.7217   -0.0200 O   0  0  0  0  0  0  0  0  0  0  0  0
    2.4335    0.7540   -0.0065 N   0  0  0  0  0  0  0  0  0  0  0  0
   -2.2329    0.8745    0.0052 N   0  0  0  0  0  0  0  0  0  0  0  0
    0.1125    0.8525   -0.0014 N   0  0  0  0  0  0  0  0  0  0  0  0
   -1.1347   -1.1974    0.0015 N   0  0  0  0  0  0  0  0  0  0  0  0
    1.2642   -1.2526   -0.0044 N   0  0  0  0  0  0  0  0  0  0  0  0
    4.8551    1.0937    0.0003 C   0  0  0  0  0  0  0  0  0  0  0  0
   -4.6303    1.2939    0.0003 C   0  0  0  0  0  0  0  0  0  0  0  0
    3.7125    0.0849   -0.0095 C   0  0  0  0  0  0  0  0  0  0  0  0
   -3.5189    0.2508    0.0086 C   0  0  0  0  0  0  0  0  0  0  0  0
    6.2292    0.4342   -0.0045 C   0  0  0  0  0  0  0  0  0  0  0  0
   -6.0238    0.6766    0.0057 C   0  0  0  0  0  0  0  0  0  0  0  0
    1.2174    0.0892   -0.0042 C   0  0  0  0  0  0  0  0  0  0  0  0
   -1.0263    0.1411    0.0015 C   0  0  0  0  0  0  0  0  0  0  0  0
    0.0508   -1.8279   -0.0013 C   0  0  0  0  0  0  0  0  0  0  0  0
    8.5331    0.8975   -0.0061 C   0  0  0  0  0  0  0  0  0  0  0  0
   -8.3125    1.2101    0.0092 C   0  0  0  0  0  0  0  0  0  0  0  0
   -1.7754   -3.9378    0.0037 C   0  0  0  0  0  0  0  0  0  0  0  0
    4.7732    1.7639   -0.8655 H   0  0  0  0  0  0  0  0  0  0  0  0
    4.7711    1.7476    0.8783 H   0  0  0  0  0  0  0  0  0  0  0  0
   -4.5275    1.9457   -0.8774 H   0  0  0  0  0  0  0  0  0  0  0  0
   -4.5278    1.9608    0.8666 H   0  0  0  0  0  0  0  0  0  0  0  0
    3.7976   -0.5491   -0.9003 H   0  0  0  0  0  0  0  0  0  0  0  0
    3.7953   -0.5624    0.8719 H   0  0  0  0  0  0  0  0  0  0  0  0
   -3.6270   -0.3817    0.8980 H   0  0  0  0  0  0  0  0  0  0  0  0
   -3.6265   -0.3937   -0.8724 H   0  0  0  0  0  0  0  0  0  0  0  0
    6.3399   -0.2105    0.8752 H   0  0  0  0  0  0  0  0  0  0  0  0
    6.3485   -0.1753   -0.9079 H   0  0  0  0  0  0  0  0  0  0  0  0
   -6.1549    0.0363   -0.8744 H   0  0  0  0  0  0  0  0  0  0  0  0
   -6.1611    0.0706    0.9088 H   0  0  0  0  0  0  0  0  0  0  0  0
    2.4002    1.7671   -0.0074 H   0  0  0  0  0  0  0  0  0  0  0  0
   -2.1488    1.8845    0.0068 H   0  0  0  0  0  0  0  0  0  0  0  0
    9.2536    1.7193    0.0205 H   0  0  0  0  0  0  0  0  0  0  0  0
    8.6887    0.3266   -0.9265 H   0  0  0  0  0  0  0  0  0  0  0  0
    8.6996    0.2589    0.8668 H   0  0  0  0  0  0  0  0  0  0  0  0
   -9.0077    2.0535   -0.0157 H   0  0  0  0  0  0  0  0  0  0  0  0
   -8.4847    0.6429    0.9290 H   0  0  0  0  0  0  0  0  0  0  0  0
   -8.4992    0.5779   -0.8644 H   0  0  0  0  0  0  0  0  0  0  0  0
   -1.9355   -5.0194    0.0043 H   0  0  0  0  0  0  0  0  0  0  0  0
   -2.2483   -3.5210   -0.8898 H   0  0  0  0  0  0  0  0  0  0  0  0
   -2.2438   -3.5207    0.8995 H   0  0  0  0  0  0  0  0  0  0  0  0
  1 17  1  0  0  0  0
  1 20  1  0  0  0  0
  2 13  1  0  0  0  0
  2 18  1  0  0  0  0
  3 14  1  0  0  0  0
  3 19  1  0  0  0  0
  4 11  1  0  0  0  0
  4 15  1  0  0  0  0
  4 33  1  0  0  0  0
  5 12  1  0  0  0  0
  5 16  1  0  0  0  0
  5 34  1  0  0  0  0
  6 15  2  0  0  0  0
  6 16  1  0  0  0  0
  7 16  2  0  0  0  0
  7 17  1  0  0  0  0
  8 15  1  0  0  0  0
  8 17  2  0  0  0  0
  9 11  1  0  0  0  0
  9 13  1  0  0  0  0
  9 21  1  0  0  0  0
  9 22  1  0  0  0  0
 10 12  1  0  0  0  0
 10 14  1  0  0  0  0
 10 23  1  0  0  0  0
 10 24  1  0  0  0  0
 11 25  1  0  0  0  0
 11 26  1  0  0  0  0
 12 27  1  0  0  0  0
 12 28  1  0  0  0  0
 13 29  1  0  0  0  0
 13 30  1  0  0  0  0
 14 31  1  0  0  0  0
 14 32  1  0  0  0  0
 18 35  1  0  0  0  0
 18 36  1  0  0  0  0
 18 37  1  0  0  0  0
 19 38  1  0  0  0  0
 19 39  1  0  0  0  0
 19 40  1  0  0  0  0
 20 41  1  0  0  0  0
 20 42  1  0  0  0  0
 20 43  1  0  0  0  0
M  END
> <PUBCHEM_COMPOUND_CID>
13305

> <PUBCHEM_CONFORMER_RMSD>
1.2

> <PUBCHEM_CONFORMER_DIVERSEORDER>
1
28
9
18
32
23
34
19
30
38
24
13
4
16
41
10
8
11
21
2
36
20
26
31
39
15
37
40
12
6
3
7
29
35
27
33
25
17
5
22
14

> <PUBCHEM_MMFF94_PARTIAL_CHARGES>
20
1 -0.33
11 0.37
12 0.37
13 0.28
14 0.28
15 0.72
16 0.72
17 0.72
18 0.28
19 0.28
2 -0.56
20 0.23
3 -0.56
33 0.4
34 0.4
4 -0.87
5 -0.87
6 -0.62
7 -0.62
8 -0.62

> <PUBCHEM_EFFECTIVE_ROTOR_COUNT>
11

> <PUBCHEM_PHARMACOPHORE_FEATURES>
8
1 2 acceptor
1 20 hydrophobe
1 3 acceptor
1 4 donor
1 5 donor
4 4 6 8 15 cation
4 5 6 7 16 cation
6 6 7 8 15 16 17 rings

> <PUBCHEM_HEAVY_ATOM_COUNT>
20

> <PUBCHEM_ATOM_DEF_STEREO_COUNT>
0

> <PUBCHEM_ATOM_UDEF_STEREO_COUNT>
0

> <PUBCHEM_BOND_DEF_STEREO_COUNT>
0

> <PUBCHEM_BOND_UDEF_STEREO_COUNT>
0

> <PUBCHEM_ISOTOPIC_ATOM_COUNT>
0

> <PUBCHEM_COMPONENT_COUNT>
1

> <PUBCHEM_CACTVS_TAUTO_COUNT>
5

> <PUBCHEM_CONFORMER_ID>
000033F900000001

> <PUBCHEM_MMFF94_ENERGY>
46.915

> <PUBCHEM_FEATURE_SELFOVERLAP>
40.639

> <PUBCHEM_SHAPE_FINGERPRINT>
10 15 18131632296554215993
10050765 1 18050568444070653976
10165383 225 18411139147161093237
10411042 1 17690279309687115779
14251764 46 18411136943705856752
15927050 60 18410014333860754526
18006028 8 9223229645804167505
20554085 129 17968109633242606170
20621476 66 18411981334771862852
20645477 70 18198061590018496347
21150785 3 16008750216609197397
21236236 1 18336265622113692239
22224240 67 18412546513834312173
23402539 116 18261397715167721084
23559900 14 18260834740388877992
246663 6 9439402440950987920
293599 30 18410857659399460632
335352 9 18410011014451648668
33824 294 18268710683728045595
5486654 2 18335421274788026489
559249 180 18339927018300578650
5758199 1 18334856143323528297
6669772 16 18260542368125875502
8209 1 18040716973956029452

> <PUBCHEM_SHAPE_MULTIPOLES>
378.8
21.05
3.17
0.59
6.99
5.52
0
-20.95
-0.02
-2.22
0
0
0.03
0.01

> <PUBCHEM_SHAPE_SELFOVERLAP>
722.42

> <PUBCHEM_SHAPE_VOLUME>
235

> <PUBCHEM_COORDINATE_TYPE>
2
5
10

$$$$

