13224
  -OEChem-06261207553D

 21 22  0     0  0  0  0  0  0999 V2000
    1.2819   -2.4631    0.0001 O   0  0  0  0  0  0  0  0  0  0  0  0
   -1.0412   -0.9857    0.0000 N   0  0  0  0  0  0  0  0  0  0  0  0
    0.2487    1.0499    0.0000 C   0  0  0  0  0  0  0  0  0  0  0  0
    0.1497   -0.3572   -0.0001 C   0  0  0  0  0  0  0  0  0  0  0  0
   -0.9384    1.7948    0.0000 C   0  0  0  0  0  0  0  0  0  0  0  0
   -2.1632   -0.2301    0.0000 C   0  0  0  0  0  0  0  0  0  0  0  0
    1.3291   -1.0967    0.0000 C   0  0  0  0  0  0  0  0  0  0  0  0
    1.5083    1.6727    0.0000 C   0  0  0  0  0  0  0  0  0  0  0  0
   -2.1669    1.1501    0.0001 C   0  0  0  0  0  0  0  0  0  0  0  0
    2.5817   -0.4777   -0.0001 C   0  0  0  0  0  0  0  0  0  0  0  0
    2.6718    0.9087    0.0000 C   0  0  0  0  0  0  0  0  0  0  0  0
   -3.4615   -0.9656    0.0000 C   0  0  0  0  0  0  0  0  0  0  0  0
   -0.9118    2.8820    0.0000 H   0  0  0  0  0  0  0  0  0  0  0  0
    1.5900    2.7574    0.0000 H   0  0  0  0  0  0  0  0  0  0  0  0
   -3.0892    1.7206    0.0001 H   0  0  0  0  0  0  0  0  0  0  0  0
    3.4939   -1.0685   -0.0001 H   0  0  0  0  0  0  0  0  0  0  0  0
    3.6432    1.3936    0.0000 H   0  0  0  0  0  0  0  0  0  0  0  0
   -3.3002   -2.0487    0.0000 H   0  0  0  0  0  0  0  0  0  0  0  0
   -4.0434   -0.7113    0.8916 H   0  0  0  0  0  0  0  0  0  0  0  0
   -4.0432   -0.7114   -0.8918 H   0  0  0  0  0  0  0  0  0  0  0  0
    2.1890   -2.8139    0.0002 H   0  0  0  0  0  0  0  0  0  0  0  0
  1  7  1  0  0  0  0
  1 21  1  0  0  0  0
  2  4  1  0  0  0  0
  2  6  2  0  0  0  0
  3  4  2  0  0  0  0
  3  5  1  0  0  0  0
  3  8  1  0  0  0  0
  4  7  1  0  0  0  0
  5  9  2  0  0  0  0
  5 13  1  0  0  0  0
  6  9  1  0  0  0  0
  6 12  1  0  0  0  0
  7 10  2  0  0  0  0
  8 11  2  0  0  0  0
  8 14  1  0  0  0  0
  9 15  1  0  0  0  0
 10 11  1  0  0  0  0
 10 16  1  0  0  0  0
 11 17  1  0  0  0  0
 12 18  1  0  0  0  0
 12 19  1  0  0  0  0
 12 20  1  0  0  0  0
M  END
> <PUBCHEM_COMPOUND_CID>
13224

> <PUBCHEM_CONFORMER_RMSD>
0.4

> <PUBCHEM_CONFORMER_DIVERSEORDER>
1

> <PUBCHEM_MMFF94_PARTIAL_CHARGES>
17
1 -0.53
10 -0.15
11 -0.15
12 0.14
13 0.15
14 0.15
15 0.15
16 0.15
17 0.15
2 -0.62
21 0.45
4 0.31
5 -0.15
6 0.17
7 0.08
8 -0.15
9 -0.15

> <PUBCHEM_EFFECTIVE_ROTOR_COUNT>
0

> <PUBCHEM_PHARMACOPHORE_FEATURES>
4
1 1 donor
1 2 acceptor
6 2 3 4 5 6 9 rings
6 3 4 7 8 10 11 rings

> <PUBCHEM_HEAVY_ATOM_COUNT>
12

> <PUBCHEM_ATOM_DEF_STEREO_COUNT>
0

> <PUBCHEM_ATOM_UDEF_STEREO_COUNT>
0

> <PUBCHEM_BOND_DEF_STEREO_COUNT>
0

> <PUBCHEM_BOND_UDEF_STEREO_COUNT>
0

> <PUBCHEM_ISOTOPIC_ATOM_COUNT>
0

> <PUBCHEM_COMPONENT_COUNT>
1

> <PUBCHEM_CACTVS_TAUTO_COUNT>
3

> <PUBCHEM_CONFORMER_ID>
000033A800000001

> <PUBCHEM_MMFF94_ENERGY>
33.1499

> <PUBCHEM_FEATURE_SELFOVERLAP>
20.329

> <PUBCHEM_SHAPE_FINGERPRINT>
10967382 1 18338797784496430727
11206711 2 18413103991487780413
11471102 20 18411142403083615061
12032990 46 18410567362338455871
12423570 1 4857507011335818564
12524768 44 18048032162217159847
12897270 3 18411419505356389397
14251717 144 18265339408830082807
14325111 11 18410573967977246469
16945 1 18410573998047064932
17844478 74 18131343095010356913
17990270 104 18339080505140413730
193761 8 18194401323323326757
19973954 147 18338234997799356357
20201158 50 18341896277257468819
20645477 70 18408609158627457575
21040471 1 18122624955570750688
21501502 16 18339359776730323273
2334 1 17762056532237273731
23402655 69 18336561507544308621
23463225 33 18342461465089123032
23552423 10 18342171219314420741
23559900 14 17326616298920718158
241688 4 18052536874383556432
2748010 2 18265898153551293118
5084963 1 18187079529512693592
528886 8 18265900163617073624
7364860 26 18261675986336250878
8809292 202 18201995487022882619

> <PUBCHEM_SHAPE_MULTIPOLES>
236.1
4.28
2.07
0.6
1.68
0.3
0
0.57
0
-0.42
0
0
-0.03
0

> <PUBCHEM_SHAPE_SELFOVERLAP>
518.468

> <PUBCHEM_SHAPE_VOLUME>
128.3

> <PUBCHEM_COORDINATE_TYPE>
2
5
10

$$$$

