5351
  -OEChem-06261200392D

 41 42  0     1  0  0  0  0  0999 V2000
    3.7320    0.0000    0.0000 S   0  0  0  0  0  0  0  0  0  0  0  0
    4.5981    5.5000    0.0000 S   0  0  3  0  0  0  0  0  0  0  0  0
    2.8660   -5.5000    0.0000 S   0  0  3  0  0  0  0  0  0  0  0  0
    4.7320    0.0000    0.0000 O   0  0  0  0  0  0  0  0  0  0  0  0
    2.7320    0.0000    0.0000 O   0  0  0  0  0  0  0  0  0  0  0  0
    5.4641    6.0000    0.0000 O   0  0  0  0  0  0  0  0  0  0  0  0
    2.0000   -6.0000    0.0000 O   0  0  0  0  0  0  0  0  0  0  0  0
    3.7320    6.0000    0.0000 O   0  0  0  0  0  0  0  0  0  0  0  0
    3.7320   -6.0000    0.0000 O   0  0  0  0  0  0  0  0  0  0  0  0
    3.7320    4.0000    0.0000 N   0  0  0  0  0  0  0  0  0  0  0  0
    3.7320   -4.0000    0.0000 N   0  0  0  0  0  0  0  0  0  0  0  0
    3.7320   -1.0000    0.0000 C   0  0  0  0  0  0  0  0  0  0  0  0
    3.7320    1.0000    0.0000 C   0  0  0  0  0  0  0  0  0  0  0  0
    2.8660   -1.5000    0.0000 C   0  0  0  0  0  0  0  0  0  0  0  0
    4.5981    1.5000    0.0000 C   0  0  0  0  0  0  0  0  0  0  0  0
    4.5981   -1.5000    0.0000 C   0  0  0  0  0  0  0  0  0  0  0  0
    2.8660    1.5000    0.0000 C   0  0  0  0  0  0  0  0  0  0  0  0
    3.7320   -3.0000    0.0000 C   0  0  0  0  0  0  0  0  0  0  0  0
    3.7320    3.0000    0.0000 C   0  0  0  0  0  0  0  0  0  0  0  0
    2.8660   -2.5000    0.0000 C   0  0  0  0  0  0  0  0  0  0  0  0
    4.5981    2.5000    0.0000 C   0  0  0  0  0  0  0  0  0  0  0  0
    4.5981   -2.5000    0.0000 C   0  0  0  0  0  0  0  0  0  0  0  0
    2.8660    2.5000    0.0000 C   0  0  0  0  0  0  0  0  0  0  0  0
    2.8660   -4.5000    0.0000 C   0  0  0  0  0  0  0  0  0  0  0  0
    4.5981    4.5000    0.0000 C   0  0  0  0  0  0  0  0  0  0  0  0
    5.1350    1.1900    0.0000 H   0  0  0  0  0  0  0  0  0  0  0  0
    2.3291   -1.1900    0.0000 H   0  0  0  0  0  0  0  0  0  0  0  0
    2.3291    1.1900    0.0000 H   0  0  0  0  0  0  0  0  0  0  0  0
    5.1350   -1.1900    0.0000 H   0  0  0  0  0  0  0  0  0  0  0  0
    5.1350    2.8100    0.0000 H   0  0  0  0  0  0  0  0  0  0  0  0
    2.3291   -2.8100    0.0000 H   0  0  0  0  0  0  0  0  0  0  0  0
    2.3291    2.8100    0.0000 H   0  0  0  0  0  0  0  0  0  0  0  0
    5.1350   -2.8100    0.0000 H   0  0  0  0  0  0  0  0  0  0  0  0
    3.1951    4.3100    0.0000 H   0  0  0  0  0  0  0  0  0  0  0  0
    4.2690   -4.3100    0.0000 H   0  0  0  0  0  0  0  0  0  0  0  0
    4.8101    3.9174    0.0000 H   0  0  0  0  0  0  0  0  0  0  0  0
    5.2087    4.6077    0.0000 H   0  0  0  0  0  0  0  0  0  0  0  0
    2.6540   -3.9174    0.0000 H   0  0  0  0  0  0  0  0  0  0  0  0
    2.2554   -4.6077    0.0000 H   0  0  0  0  0  0  0  0  0  0  0  0
    2.0000   -6.6200    0.0000 H   0  0  0  0  0  0  0  0  0  0  0  0
    5.4641    6.6200    0.0000 H   0  0  0  0  0  0  0  0  0  0  0  0
  1  4  2  0  0  0  0
  1  5  2  0  0  0  0
  1 12  1  0  0  0  0
  1 13  1  0  0  0  0
  2  6  1  0  0  0  0
  2  8  2  0  0  0  0
  2 25  1  0  0  0  0
  3  7  1  0  0  0  0
  3  9  2  0  0  0  0
  3 24  1  0  0  0  0
  6 41  1  0  0  0  0
  7 40  1  0  0  0  0
 10 19  1  0  0  0  0
 10 25  1  0  0  0  0
 10 34  1  0  0  0  0
 11 18  1  0  0  0  0
 11 24  1  0  0  0  0
 11 35  1  0  0  0  0
 12 14  2  0  0  0  0
 12 16  1  0  0  0  0
 13 15  2  0  0  0  0
 13 17  1  0  0  0  0
 14 20  1  0  0  0  0
 14 27  1  0  0  0  0
 15 21  1  0  0  0  0
 15 26  1  0  0  0  0
 16 22  2  0  0  0  0
 16 29  1  0  0  0  0
 17 23  2  0  0  0  0
 17 28  1  0  0  0  0
 18 20  2  0  0  0  0
 18 22  1  0  0  0  0
 19 21  2  0  0  0  0
 19 23  1  0  0  0  0
 20 31  1  0  0  0  0
 21 30  1  0  0  0  0
 22 33  1  0  0  0  0
 23 32  1  0  0  0  0
 24 38  1  0  0  0  0
 24 39  1  0  0  0  0
 25 36  1  0  0  0  0
 25 37  1  0  0  0  0
M  END
> <PUBCHEM_COMPOUND_CID>
5351

> <PUBCHEM_COMPOUND_CANONICALIZED>
1

> <PUBCHEM_CACTVS_COMPLEXITY>
520

> <PUBCHEM_CACTVS_HBOND_ACCEPTOR>
10

> <PUBCHEM_CACTVS_HBOND_DONOR>
4

> <PUBCHEM_CACTVS_ROTATABLE_BOND>
8

> <PUBCHEM_CACTVS_SUBSKEYS>
AAADceBzOABgAAAAAAAAAAAAAAAAAAAAAAAwYAAAAAAAAAABQAAAHAQQCAAACAiBUASwwYLAAIqAACRCQHDKAAAhChAIiJgIZIgIICLgkZGEIAhgkABoyAcQAAAAAAQAAAAAAAAACAAAAAAAAAAAAAAAAA==

> <PUBCHEM_IUPAC_OPENEYE_NAME>
[4-[4-(sulfinomethylamino)phenyl]sulfonylanilino]methanesulfinic acid

> <PUBCHEM_IUPAC_CAS_NAME>
[4-[4-(sulfinomethylamino)phenyl]sulfonylanilino]methanesulfinic acid

> <PUBCHEM_IUPAC_NAME>
[4-[4-(sulfinomethylamino)phenyl]sulfonylanilino]methanesulfinic acid

> <PUBCHEM_IUPAC_SYSTEMATIC_NAME>
[[4-[4-(sulfinomethylamino)phenyl]sulfonylphenyl]amino]methanesulfinic acid

> <PUBCHEM_IUPAC_TRADITIONAL_NAME>
[4-[4-(sulfinomethylamino)phenyl]sulfonylanilino]methanesulfinic acid

> <PUBCHEM_IUPAC_INCHI>
InChI=1S/C14H16N2O6S3/c17-23(18)9-15-11-1-5-13(6-2-11)25(21,22)14-7-3-12(4-8-14)16-10-24(19)20/h1-8,15-16H,9-10H2,(H,17,18)(H,19,20)

> <PUBCHEM_IUPAC_INCHIKEY>
NEDPPCHNEOMTJV-UHFFFAOYSA-N

> <PUBCHEM_XLOGP3_AA>
1.2

> <PUBCHEM_EXACT_MASS>
404.017049

> <PUBCHEM_MOLECULAR_FORMULA>
C14H16N2O6S3

> <PUBCHEM_MOLECULAR_WEIGHT>
404.48164

> <PUBCHEM_OPENEYE_CAN_SMILES>
C1=CC(=CC=C1NCS(=O)O)S(=O)(=O)C2=CC=C(C=C2)NCS(=O)O

> <PUBCHEM_OPENEYE_ISO_SMILES>
C1=CC(=CC=C1NCS(=O)O)S(=O)(=O)C2=CC=C(C=C2)NCS(=O)O

> <PUBCHEM_CACTVS_TPSA>
180

> <PUBCHEM_MONOISOTOPIC_WEIGHT>
404.017049

> <PUBCHEM_TOTAL_CHARGE>
0

> <PUBCHEM_HEAVY_ATOM_COUNT>
25

> <PUBCHEM_ATOM_DEF_STEREO_COUNT>
0

> <PUBCHEM_ATOM_UDEF_STEREO_COUNT>
0

> <PUBCHEM_BOND_DEF_STEREO_COUNT>
0

> <PUBCHEM_BOND_UDEF_STEREO_COUNT>
0

> <PUBCHEM_ISOTOPIC_ATOM_COUNT>
0

> <PUBCHEM_COMPONENT_COUNT>
1

> <PUBCHEM_CACTVS_TAUTO_COUNT>
1

> <PUBCHEM_COORDINATE_TYPE>
1
5
255

> <PUBCHEM_BONDANNOTATIONS>
12  14  8
12  16  8
13  15  8
13  17  8
14  20  8
15  21  8
16  22  8
17  23  8
18  20  8
18  22  8
19  21  8
19  23  8

$$$$

