9599
  -OEChem-06261203512D

 41 40  0     0  0  0  0  0  0999 V2000
    7.4871    5.0600    0.0000 Cl  0  0  0  0  0  0  0  0  0  0  0  0
    1.4030    0.0000    0.0000 F   0  0  0  0  0  0  0  0  0  0  0  0
    3.1350    6.0000    0.0000 O   0  0  0  0  0  0  0  0  0  0  0  0
    1.4030    4.0000    0.0000 O   0  0  0  0  0  0  0  0  0  0  0  0
    1.4030    6.0000    0.0000 O   0  0  0  0  0  0  0  0  0  0  0  0
    4.0010    8.5000    0.0000 N   0  0  0  0  0  0  0  0  0  0  0  0
    4.0010    7.5000    0.0000 C   0  0  0  0  0  0  0  0  0  0  0  0
    4.8671    9.0000    0.0000 C   0  0  0  0  0  0  0  0  0  0  0  0
    3.1350    9.0000    0.0000 C   0  0  0  0  0  0  0  0  0  0  0  0
    3.1350    7.0000    0.0000 C   0  0  0  0  0  0  0  0  0  0  0  0
    4.8671   10.0000    0.0000 C   0  0  0  0  0  0  0  0  0  0  0  0
    3.1350   10.0000    0.0000 C   0  0  0  0  0  0  0  0  0  0  0  0
    2.2690    5.5000    0.0000 C   0  0  0  0  0  0  0  0  0  0  0  0
    2.2690    4.5000    0.0000 C   0  0  0  0  0  0  0  0  0  0  0  0
    1.4030    3.0000    0.0000 C   0  0  0  0  0  0  0  0  0  0  0  0
    0.5369    2.5000    0.0000 C   0  0  0  0  0  0  0  0  0  0  0  0
    2.2690    2.5000    0.0000 C   0  0  0  0  0  0  0  0  0  0  0  0
    0.5369    1.5000    0.0000 C   0  0  0  0  0  0  0  0  0  0  0  0
    2.2690    1.5000    0.0000 C   0  0  0  0  0  0  0  0  0  0  0  0
    1.4030    1.0000    0.0000 C   0  0  0  0  0  0  0  0  0  0  0  0
    4.2131    6.9174    0.0000 H   0  0  0  0  0  0  0  0  0  0  0  0
    4.6116    7.6077    0.0000 H   0  0  0  0  0  0  0  0  0  0  0  0
    5.0791    8.4174    0.0000 H   0  0  0  0  0  0  0  0  0  0  0  0
    5.4776    9.1077    0.0000 H   0  0  0  0  0  0  0  0  0  0  0  0
    2.5244    9.1077    0.0000 H   0  0  0  0  0  0  0  0  0  0  0  0
    2.9230    8.4174    0.0000 H   0  0  0  0  0  0  0  0  0  0  0  0
    2.9230    7.5826    0.0000 H   0  0  0  0  0  0  0  0  0  0  0  0
    2.5244    6.8923    0.0000 H   0  0  0  0  0  0  0  0  0  0  0  0
    5.4871   10.0000    0.0000 H   0  0  0  0  0  0  0  0  0  0  0  0
    4.8671   10.6200    0.0000 H   0  0  0  0  0  0  0  0  0  0  0  0
    4.2471   10.0000    0.0000 H   0  0  0  0  0  0  0  0  0  0  0  0
    3.7550   10.0000    0.0000 H   0  0  0  0  0  0  0  0  0  0  0  0
    3.1350   10.6200    0.0000 H   0  0  0  0  0  0  0  0  0  0  0  0
    2.5150   10.0000    0.0000 H   0  0  0  0  0  0  0  0  0  0  0  0
    2.4810    3.9174    0.0000 H   0  0  0  0  0  0  0  0  0  0  0  0
    2.8796    4.6077    0.0000 H   0  0  0  0  0  0  0  0  0  0  0  0
    0.0000    2.8100    0.0000 H   0  0  0  0  0  0  0  0  0  0  0  0
    2.8059    2.8100    0.0000 H   0  0  0  0  0  0  0  0  0  0  0  0
    0.0000    1.1900    0.0000 H   0  0  0  0  0  0  0  0  0  0  0  0
    2.8059    1.1900    0.0000 H   0  0  0  0  0  0  0  0  0  0  0  0
    8.4871    5.0600    0.0000 H   0  0  0  0  0  0  0  0  0  0  0  0
  1 41  1  0  0  0  0
  2 20  1  0  0  0  0
  3 10  1  0  0  0  0
  3 13  1  0  0  0  0
  4 14  1  0  0  0  0
  4 15  1  0  0  0  0
  5 13  2  0  0  0  0
  6  7  1  0  0  0  0
  6  8  1  0  0  0  0
  6  9  1  0  0  0  0
  7 10  1  0  0  0  0
  7 21  1  0  0  0  0
  7 22  1  0  0  0  0
  8 11  1  0  0  0  0
  8 23  1  0  0  0  0
  8 24  1  0  0  0  0
  9 12  1  0  0  0  0
  9 25  1  0  0  0  0
  9 26  1  0  0  0  0
 10 27  1  0  0  0  0
 10 28  1  0  0  0  0
 11 29  1  0  0  0  0
 11 30  1  0  0  0  0
 11 31  1  0  0  0  0
 12 32  1  0  0  0  0
 12 33  1  0  0  0  0
 12 34  1  0  0  0  0
 13 14  1  0  0  0  0
 14 35  1  0  0  0  0
 14 36  1  0  0  0  0
 15 16  2  0  0  0  0
 15 17  1  0  0  0  0
 16 18  1  0  0  0  0
 16 37  1  0  0  0  0
 17 19  2  0  0  0  0
 17 38  1  0  0  0  0
 18 20  2  0  0  0  0
 18 39  1  0  0  0  0
 19 20  1  0  0  0  0
 19 40  1  0  0  0  0
M  END
> <PUBCHEM_COMPOUND_CID>
9599

> <PUBCHEM_COMPOUND_CANONICALIZED>
1

> <PUBCHEM_CACTVS_COMPLEXITY>
251

> <PUBCHEM_CACTVS_HBOND_ACCEPTOR>
5

> <PUBCHEM_CACTVS_HBOND_DONOR>
1

> <PUBCHEM_CACTVS_ROTATABLE_BOND>
9

> <PUBCHEM_CACTVS_SUBSKEYS>
AAADceByMQAEAAAAAAAAAAAAAAAAAAAAAAAwAAAAAAAAAAABAAAAHwAAAAAACAThkA4yDoMABACIACDSCAICCAAgIAAIiABOCIgPJiKEMR6DOCCkwBGaqAeAQAAAAAAAAAAAAAAAAAAAAAAAAAAAAAAAAA==

> <PUBCHEM_IUPAC_OPENEYE_NAME>
2-(diethylamino)ethyl 2-(4-fluorophenoxy)acetate hydrochloride

> <PUBCHEM_IUPAC_CAS_NAME>
2-(4-fluorophenoxy)acetic acid 2-(diethylamino)ethyl ester hydrochloride

> <PUBCHEM_IUPAC_NAME>
2-(diethylamino)ethyl 2-(4-fluorophenoxy)acetate hydrochloride

> <PUBCHEM_IUPAC_SYSTEMATIC_NAME>
2-(diethylamino)ethyl 2-(4-fluoranylphenoxy)ethanoate hydrochloride

> <PUBCHEM_IUPAC_TRADITIONAL_NAME>
2-(4-fluorophenoxy)acetic acid 2-(diethylamino)ethyl ester hydrochloride

> <PUBCHEM_IUPAC_INCHI>
InChI=1S/C14H20FNO3.ClH/c1-3-16(4-2)9-10-18-14(17)11-19-13-7-5-12(15)6-8-13;/h5-8H,3-4,9-11H2,1-2H3;1H

> <PUBCHEM_IUPAC_INCHIKEY>
CHDXBHHROSPLRM-UHFFFAOYSA-N

> <PUBCHEM_EXACT_MASS>
305.119399

> <PUBCHEM_MOLECULAR_FORMULA>
C14H21ClFNO3

> <PUBCHEM_MOLECULAR_WEIGHT>
305.772843

> <PUBCHEM_OPENEYE_CAN_SMILES>
CCN(CC)CCOC(=O)COC1=CC=C(C=C1)F.Cl

> <PUBCHEM_OPENEYE_ISO_SMILES>
CCN(CC)CCOC(=O)COC1=CC=C(C=C1)F.Cl

> <PUBCHEM_CACTVS_TPSA>
38.8

> <PUBCHEM_MONOISOTOPIC_WEIGHT>
305.119399

> <PUBCHEM_TOTAL_CHARGE>
0

> <PUBCHEM_HEAVY_ATOM_COUNT>
20

> <PUBCHEM_ATOM_DEF_STEREO_COUNT>
0

> <PUBCHEM_ATOM_UDEF_STEREO_COUNT>
0

> <PUBCHEM_BOND_DEF_STEREO_COUNT>
0

> <PUBCHEM_BOND_UDEF_STEREO_COUNT>
0

> <PUBCHEM_ISOTOPIC_ATOM_COUNT>
0

> <PUBCHEM_COMPONENT_COUNT>
2

> <PUBCHEM_CACTVS_TAUTO_COUNT>
1

> <PUBCHEM_COORDINATE_TYPE>
1
5
255

> <PUBCHEM_BONDANNOTATIONS>
15  16  8
15  17  8
16  18  8
17  19  8
18  20  8
19  20  8

$$$$

