17395730
  -OEChem-06241222522D

 54 56  0     0  0  0  0  0  0999 V2000
    6.8970    3.0580    0.0000 O   0  0  0  0  0  0  0  0  0  0  0  0
    6.8970   -2.9420    0.0000 O   0  0  0  0  0  0  0  0  0  0  0  0
    2.1810   -2.2603    0.0000 O   0  0  0  0  0  0  0  0  0  0  0  0
    6.0310    0.5580    0.0000 N   0  0  0  0  0  0  0  0  0  0  0  0
    6.0310   -1.4420    0.0000 N   0  0  0  0  0  0  0  0  0  0  0  0
    5.0604   -3.9365    0.0000 N   0  0  0  0  0  0  0  0  0  0  0  0
    6.8970    0.0580    0.0000 C   0  0  0  0  0  0  0  0  0  0  0  0
    5.1650    0.0580    0.0000 C   0  0  0  0  0  0  0  0  0  0  0  0
    5.1650   -0.9420    0.0000 C   0  0  0  0  0  0  0  0  0  0  0  0
    6.8970   -0.9420    0.0000 C   0  0  0  0  0  0  0  0  0  0  0  0
    6.0310    1.5580    0.0000 C   0  0  0  0  0  0  0  0  0  0  0  0
    6.0310   -2.4420    0.0000 C   0  0  0  0  0  0  0  0  0  0  0  0
    5.1650   -2.9420    0.0000 C   0  0  0  0  0  0  0  0  0  0  0  0
    6.8970    2.0580    0.0000 C   0  0  0  0  0  0  0  0  0  0  0  0
    4.2514   -2.5353    0.0000 C   0  0  0  0  0  0  0  0  0  0  0  0
    3.5823   -3.2784    0.0000 C   0  0  0  0  0  0  0  0  0  0  0  0
    4.0823   -4.1444    0.0000 C   0  0  0  0  0  0  0  0  0  0  0  0
    4.0435   -1.5571    0.0000 C   0  0  0  0  0  0  0  0  0  0  0  0
    3.6756   -5.0580    0.0000 C   0  0  0  0  0  0  0  0  0  0  0  0
    2.5878   -3.1739    0.0000 C   0  0  0  0  0  0  0  0  0  0  0  0
    7.7631    3.5580    0.0000 C   0  0  0  0  0  0  0  0  0  0  0  0
    2.0000   -3.9829    0.0000 C   0  0  0  0  0  0  0  0  0  0  0  0
    8.6291    3.0580    0.0000 C   0  0  0  0  0  0  0  0  0  0  0  0
    7.7631    4.5580    0.0000 C   0  0  0  0  0  0  0  0  0  0  0  0
    9.4951    3.5580    0.0000 C   0  0  0  0  0  0  0  0  0  0  0  0
    8.6291    5.0580    0.0000 C   0  0  0  0  0  0  0  0  0  0  0  0
    9.4951    4.5580    0.0000 C   0  0  0  0  0  0  0  0  0  0  0  0
    7.5076   -0.0497    0.0000 H   0  0  0  0  0  0  0  0  0  0  0  0
    7.1091    0.6406    0.0000 H   0  0  0  0  0  0  0  0  0  0  0  0
    4.9529    0.6406    0.0000 H   0  0  0  0  0  0  0  0  0  0  0  0
    4.5544   -0.0497    0.0000 H   0  0  0  0  0  0  0  0  0  0  0  0
    7.1091   -1.5246    0.0000 H   0  0  0  0  0  0  0  0  0  0  0  0
    7.5076   -0.8343    0.0000 H   0  0  0  0  0  0  0  0  0  0  0  0
    4.5544   -0.8343    0.0000 H   0  0  0  0  0  0  0  0  0  0  0  0
    4.9529   -1.5246    0.0000 H   0  0  0  0  0  0  0  0  0  0  0  0
    5.8190    2.1406    0.0000 H   0  0  0  0  0  0  0  0  0  0  0  0
    5.4204    1.4503    0.0000 H   0  0  0  0  0  0  0  0  0  0  0  0
    7.1091    1.4754    0.0000 H   0  0  0  0  0  0  0  0  0  0  0  0
    7.5076    2.1656    0.0000 H   0  0  0  0  0  0  0  0  0  0  0  0
    5.5212   -4.3514    0.0000 H   0  0  0  0  0  0  0  0  0  0  0  0
    4.6500   -1.4282    0.0000 H   0  0  0  0  0  0  0  0  0  0  0  0
    3.9146   -0.9507    0.0000 H   0  0  0  0  0  0  0  0  0  0  0  0
    3.4371   -1.6860    0.0000 H   0  0  0  0  0  0  0  0  0  0  0  0
    3.1092   -4.8058    0.0000 H   0  0  0  0  0  0  0  0  0  0  0  0
    3.4234   -5.6244    0.0000 H   0  0  0  0  0  0  0  0  0  0  0  0
    4.2420   -5.3102    0.0000 H   0  0  0  0  0  0  0  0  0  0  0  0
    1.4984   -3.6185    0.0000 H   0  0  0  0  0  0  0  0  0  0  0  0
    1.6356   -4.4845    0.0000 H   0  0  0  0  0  0  0  0  0  0  0  0
    2.5016   -4.3473    0.0000 H   0  0  0  0  0  0  0  0  0  0  0  0
    8.6291    2.4380    0.0000 H   0  0  0  0  0  0  0  0  0  0  0  0
    7.2261    4.8680    0.0000 H   0  0  0  0  0  0  0  0  0  0  0  0
   10.0320    3.2480    0.0000 H   0  0  0  0  0  0  0  0  0  0  0  0
    8.6291    5.6780    0.0000 H   0  0  0  0  0  0  0  0  0  0  0  0
   10.0320    4.8680    0.0000 H   0  0  0  0  0  0  0  0  0  0  0  0
  1 14  1  0  0  0  0
  1 21  1  0  0  0  0
  2 12  2  0  0  0  0
  3 20  2  0  0  0  0
  4  7  1  0  0  0  0
  4  8  1  0  0  0  0
  4 11  1  0  0  0  0
  5  9  1  0  0  0  0
  5 10  1  0  0  0  0
  5 12  1  0  0  0  0
  6 13  1  0  0  0  0
  6 17  1  0  0  0  0
  6 40  1  0  0  0  0
  7 10  1  0  0  0  0
  7 28  1  0  0  0  0
  7 29  1  0  0  0  0
  8  9  1  0  0  0  0
  8 30  1  0  0  0  0
  8 31  1  0  0  0  0
  9 34  1  0  0  0  0
  9 35  1  0  0  0  0
 10 32  1  0  0  0  0
 10 33  1  0  0  0  0
 11 14  1  0  0  0  0
 11 36  1  0  0  0  0
 11 37  1  0  0  0  0
 12 13  1  0  0  0  0
 13 15  2  0  0  0  0
 14 38  1  0  0  0  0
 14 39  1  0  0  0  0
 15 16  1  0  0  0  0
 15 18  1  0  0  0  0
 16 17  2  0  0  0  0
 16 20  1  0  0  0  0
 17 19  1  0  0  0  0
 18 41  1  0  0  0  0
 18 42  1  0  0  0  0
 18 43  1  0  0  0  0
 19 44  1  0  0  0  0
 19 45  1  0  0  0  0
 19 46  1  0  0  0  0
 20 22  1  0  0  0  0
 21 23  2  0  0  0  0
 21 24  1  0  0  0  0
 22 47  1  0  0  0  0
 22 48  1  0  0  0  0
 22 49  1  0  0  0  0
 23 25  1  0  0  0  0
 23 50  1  0  0  0  0
 24 26  2  0  0  0  0
 24 51  1  0  0  0  0
 25 27  2  0  0  0  0
 25 52  1  0  0  0  0
 26 27  1  0  0  0  0
 26 53  1  0  0  0  0
 27 54  1  0  0  0  0
M  END
> <PUBCHEM_COMPOUND_CID>
17395730

> <PUBCHEM_COMPOUND_CANONICALIZED>
1

> <PUBCHEM_CACTVS_COMPLEXITY>
513

> <PUBCHEM_CACTVS_HBOND_ACCEPTOR>
4

> <PUBCHEM_CACTVS_HBOND_DONOR>
1

> <PUBCHEM_CACTVS_ROTATABLE_BOND>
6

> <PUBCHEM_CACTVS_SUBSKEYS>
AAADceB7MAAAAAAAAAAAAAAAAAAAAWAAAAA8QAAAAAAAAAABwAAAHgAQAAAADAzhngYyhpPJlACoA6VyVACCiCAnICAImSG+TNgOZnrEtbuXOajk1hHY6UecSwA+gAAAAAAAAAAAAAAAAAAAAAAAAAAAAA==

> <PUBCHEM_IUPAC_OPENEYE_NAME>
1-[2,4-dimethyl-5-[4-(2-phenoxyethyl)piperazine-1-carbonyl]-1H-pyrrol-3-yl]ethanone

> <PUBCHEM_IUPAC_CAS_NAME>
1-[2,4-dimethyl-5-[oxo-[4-(2-phenoxyethyl)-1-piperazinyl]methyl]-1H-pyrrol-3-yl]ethanone

> <PUBCHEM_IUPAC_NAME>
1-[2,4-dimethyl-5-[4-(2-phenoxyethyl)piperazine-1-carbonyl]-1H-pyrrol-3-yl]ethanone

> <PUBCHEM_IUPAC_SYSTEMATIC_NAME>
1-[2,4-dimethyl-5-[4-(2-phenoxyethyl)piperazin-1-yl]carbonyl-1H-pyrrol-3-yl]ethanone

> <PUBCHEM_IUPAC_TRADITIONAL_NAME>
1-[2,4-dimethyl-5-[4-(2-phenoxyethyl)piperazine-1-carbonyl]-1H-pyrrol-3-yl]ethanone

> <PUBCHEM_IUPAC_INCHI>
InChI=1S/C21H27N3O3/c1-15-19(17(3)25)16(2)22-20(15)21(26)24-11-9-23(10-12-24)13-14-27-18-7-5-4-6-8-18/h4-8,22H,9-14H2,1-3H3

> <PUBCHEM_IUPAC_INCHIKEY>
RGPSQYOCXRTMBK-UHFFFAOYSA-N

> <PUBCHEM_XLOGP3_AA>
2.4

> <PUBCHEM_EXACT_MASS>
369.205242

> <PUBCHEM_MOLECULAR_FORMULA>
C21H27N3O3

> <PUBCHEM_MOLECULAR_WEIGHT>
369.45738

> <PUBCHEM_OPENEYE_CAN_SMILES>
CC1=C(NC(=C1C(=O)C)C)C(=O)N2CCN(CC2)CCOC3=CC=CC=C3

> <PUBCHEM_OPENEYE_ISO_SMILES>
CC1=C(NC(=C1C(=O)C)C)C(=O)N2CCN(CC2)CCOC3=CC=CC=C3

> <PUBCHEM_CACTVS_TPSA>
65.6

> <PUBCHEM_MONOISOTOPIC_WEIGHT>
369.205242

> <PUBCHEM_TOTAL_CHARGE>
0

> <PUBCHEM_HEAVY_ATOM_COUNT>
27

> <PUBCHEM_ATOM_DEF_STEREO_COUNT>
0

> <PUBCHEM_ATOM_UDEF_STEREO_COUNT>
0

> <PUBCHEM_BOND_DEF_STEREO_COUNT>
0

> <PUBCHEM_BOND_UDEF_STEREO_COUNT>
0

> <PUBCHEM_ISOTOPIC_ATOM_COUNT>
0

> <PUBCHEM_COMPONENT_COUNT>
1

> <PUBCHEM_CACTVS_TAUTO_COUNT>
37

> <PUBCHEM_COORDINATE_TYPE>
1
5
255

> <PUBCHEM_BONDANNOTATIONS>
13  15  8
15  16  8
16  17  8
21  23  8
21  24  8
23  25  8
24  26  8
25  27  8
26  27  8
6  13  8
6  17  8

$$$$

