47205301
  -OEChem-06241222583D

 36 37  0     0  0  0  0  0  0999 V2000
    0.0858    2.6213   -0.4223 O   0  0  0  0  0  0  0  0  0  0  0  0
    3.3631   -0.1740   -1.6380 O   0  0  0  0  0  0  0  0  0  0  0  0
    2.4869    1.3050   -0.0180 N   0  0  0  0  0  0  0  0  0  0  0  0
   -0.7949    1.4480    1.3803 N   0  0  0  0  0  0  0  0  0  0  0  0
   -2.6616    0.6329   -1.0426 N   0  0  0  0  0  0  0  0  0  0  0  0
   -3.3476   -0.3609   -1.6327 N   0  0  0  0  0  0  0  0  0  0  0  0
    1.5859    1.4729    1.0836 C   0  0  0  0  0  0  0  0  0  0  0  0
   -2.1880    1.7573    1.1510 C   0  0  0  0  0  0  0  0  0  0  0  0
    0.2310    1.9095    0.5683 C   0  0  0  0  0  0  0  0  0  0  0  0
    2.6197    0.0651   -0.6871 C   0  0  0  0  0  0  0  0  0  0  0  0
   -2.8624    0.7172    0.3039 C   0  0  0  0  0  0  0  0  0  0  0  0
    1.7844   -1.0515   -0.2167 C   0  0  0  0  0  0  0  0  0  0  0  0
    3.2656    2.4844   -0.4179 C   0  0  0  0  0  0  0  0  0  0  0  0
   -3.7411   -0.2912    0.6163 C   0  0  0  0  0  0  0  0  0  0  0  0
    0.5194   -1.2568   -0.7672 C   0  0  0  0  0  0  0  0  0  0  0  0
    2.2589   -1.9057    0.7786 C   0  0  0  0  0  0  0  0  0  0  0  0
   -4.0049   -0.9219   -0.6144 C   0  0  0  0  0  0  0  0  0  0  0  0
   -0.2715   -2.3162   -0.3222 C   0  0  0  0  0  0  0  0  0  0  0  0
    1.4682   -2.9651    1.2237 C   0  0  0  0  0  0  0  0  0  0  0  0
    0.2029   -3.1704    0.6733 C   0  0  0  0  0  0  0  0  0  0  0  0
    1.5042    0.5624    1.6815 H   0  0  0  0  0  0  0  0  0  0  0  0
    1.9647    2.2550    1.7520 H   0  0  0  0  0  0  0  0  0  0  0  0
   -2.2702    2.7403    0.6738 H   0  0  0  0  0  0  0  0  0  0  0  0
   -2.6728    1.8159    2.1312 H   0  0  0  0  0  0  0  0  0  0  0  0
   -0.5738    0.8574    2.1766 H   0  0  0  0  0  0  0  0  0  0  0  0
    3.9073    2.7787    0.4174 H   0  0  0  0  0  0  0  0  0  0  0  0
    3.8907    2.2545   -1.2844 H   0  0  0  0  0  0  0  0  0  0  0  0
    2.5881    3.3033   -0.6712 H   0  0  0  0  0  0  0  0  0  0  0  0
   -4.1332   -0.5365    1.5924 H   0  0  0  0  0  0  0  0  0  0  0  0
   -2.0705    1.2162   -1.6219 H   0  0  0  0  0  0  0  0  0  0  0  0
    0.1437   -0.6009   -1.5480 H   0  0  0  0  0  0  0  0  0  0  0  0
    3.2433   -1.7549    1.2141 H   0  0  0  0  0  0  0  0  0  0  0  0
   -4.6482   -1.7674   -0.8112 H   0  0  0  0  0  0  0  0  0  0  0  0
   -1.2525   -2.4831   -0.7554 H   0  0  0  0  0  0  0  0  0  0  0  0
    1.8376   -3.6304    1.9985 H   0  0  0  0  0  0  0  0  0  0  0  0
   -0.4121   -3.9962    1.0185 H   0  0  0  0  0  0  0  0  0  0  0  0
  1  9  2  0  0  0  0
  2 10  2  0  0  0  0
  3  7  1  0  0  0  0
  3 10  1  0  0  0  0
  3 13  1  0  0  0  0
  4  8  1  0  0  0  0
  4  9  1  0  0  0  0
  4 25  1  0  0  0  0
  5  6  1  0  0  0  0
  5 11  1  0  0  0  0
  5 30  1  0  0  0  0
  6 17  2  0  0  0  0
  7  9  1  0  0  0  0
  7 21  1  0  0  0  0
  7 22  1  0  0  0  0
  8 11  1  0  0  0  0
  8 23  1  0  0  0  0
  8 24  1  0  0  0  0
 10 12  1  0  0  0  0
 11 14  2  0  0  0  0
 12 15  2  0  0  0  0
 12 16  1  0  0  0  0
 13 26  1  0  0  0  0
 13 27  1  0  0  0  0
 13 28  1  0  0  0  0
 14 17  1  0  0  0  0
 14 29  1  0  0  0  0
 15 18  1  0  0  0  0
 15 31  1  0  0  0  0
 16 19  2  0  0  0  0
 16 32  1  0  0  0  0
 17 33  1  0  0  0  0
 18 20  2  0  0  0  0
 18 34  1  0  0  0  0
 19 20  1  0  0  0  0
 19 35  1  0  0  0  0
 20 36  1  0  0  0  0
M  END
> <PUBCHEM_COMPOUND_CID>
47205301

> <PUBCHEM_CONFORMER_RMSD>
1

> <PUBCHEM_CONFORMER_DIVERSEORDER>
1
115
62
92
10
133
48
57
104
47
51
131
67
26
94
128
109
125
34
35
87
126
140
23
16
24
39
142
146
15
77
147
5
27
40
3
71
144
86
112
82
6
118
73
97
121
49
80
116
30
55
17
105
63
103
91
127
74
46
12
44
123
99
7
122
21
124
113
75
19
114
136
59
66
18
42
129
120
134
20
65
143
22
135
83
68
107
25
43
11
60
14
98
137
85
106
139
95
41
72
89
110
102
9
70
4
13
36
78
138
101
117
130
132
84
145
100
88
111
45
141
69
56
93
32
31
96
38
29
61
53
33
64
2
8
37
52
81
50
28
90
119
58
108
76
79
54

> <PUBCHEM_MMFF94_PARTIAL_CHARGES>
29
1 -0.57
10 0.54
11 -0.33
12 0.09
13 0.3
14 -0.15
15 -0.15
16 -0.15
17 0.14
18 -0.15
19 -0.15
2 -0.57
20 -0.15
25 0.37
29 0.15
3 -0.66
30 0.27
31 0.15
32 0.15
33 0.15
34 0.15
35 0.15
36 0.15
4 -0.73
5 0.3
6 -0.71
7 0.36
8 0.48
9 0.57

> <PUBCHEM_EFFECTIVE_ROTOR_COUNT>
7

> <PUBCHEM_PHARMACOPHORE_FEATURES>
7
1 1 acceptor
1 2 acceptor
1 4 donor
1 5 donor
1 6 acceptor
5 5 6 11 14 17 rings
6 12 15 16 18 19 20 rings

> <PUBCHEM_HEAVY_ATOM_COUNT>
20

> <PUBCHEM_ATOM_DEF_STEREO_COUNT>
0

> <PUBCHEM_ATOM_UDEF_STEREO_COUNT>
0

> <PUBCHEM_BOND_DEF_STEREO_COUNT>
0

> <PUBCHEM_BOND_UDEF_STEREO_COUNT>
0

> <PUBCHEM_ISOTOPIC_ATOM_COUNT>
0

> <PUBCHEM_COMPONENT_COUNT>
1

> <PUBCHEM_CACTVS_TAUTO_COUNT>
4

> <PUBCHEM_CONFORMER_ID>
02D04BB500000001

> <PUBCHEM_MMFF94_ENERGY>
42.3437

> <PUBCHEM_FEATURE_SELFOVERLAP>
35.52

> <PUBCHEM_SHAPE_FINGERPRINT>
108634 29 18049156662154990334
11321824 6 16970271223949119499
12553582 1 17977942715504665289
12596599 1 17676202468569133751
13004483 165 16760581162303415826
13583140 156 17130706072585884344
14178342 30 18045786955474095904
14251745 187 18045504118702185776
14787075 74 18047755888836325983
21634736 98 18187637042222030756
22393880 68 18336827588614327845
23388829 49 17979357787228342218
238 59 18342171167912093467
2748010 2 17106781635599193640
2871803 45 18335421257713730301
35225 105 16984640281930645555
7471813 234 18046659898955515367

> <PUBCHEM_SHAPE_MULTIPOLES>
379.93
6.06
3.58
1.34
4.26
1.14
-0.1
-1
-1.65
-2.09
1.04
0.12
0.04
-0.9

> <PUBCHEM_SHAPE_SELFOVERLAP>
799.153

> <PUBCHEM_SHAPE_VOLUME>
212.7

> <PUBCHEM_COORDINATE_TYPE>
2
5
10

$$$$

