11000
  -OEChem-06261205132D

 15 15  0     0  0  0  0  0  0999 V2000
    4.1906    0.0000    0.0000 C   0  0  0  0  0  0  0  0  0  0  0  0
    3.7568   -0.9010    0.0000 C   0  0  0  0  0  0  0  0  0  0  0  0
    3.7568    0.9010    0.0000 C   0  0  0  0  0  0  0  0  0  0  0  0
    2.7818   -1.1235    0.0000 C   0  0  0  0  0  0  0  0  0  0  0  0
    2.7818    1.1235    0.0000 C   0  0  0  0  0  0  0  0  0  0  0  0
    2.0000   -0.5000    0.0000 C   0  0  0  0  0  0  0  0  0  0  0  0
    2.0000    0.5000    0.0000 C   0  0  0  0  0  0  0  0  0  0  0  0
    4.6754   -0.3866    0.0000 H   0  0  0  0  0  0  0  0  0  0  0  0
    4.6754    0.3866    0.0000 H   0  0  0  0  0  0  0  0  0  0  0  0
    4.1433   -1.3857    0.0000 H   0  0  0  0  0  0  0  0  0  0  0  0
    4.1433    1.3857    0.0000 H   0  0  0  0  0  0  0  0  0  0  0  0
    2.6439   -1.7279    0.0000 H   0  0  0  0  0  0  0  0  0  0  0  0
    2.6439    1.7279    0.0000 H   0  0  0  0  0  0  0  0  0  0  0  0
    1.4414   -0.7690    0.0000 H   0  0  0  0  0  0  0  0  0  0  0  0
    1.4414    0.7690    0.0000 H   0  0  0  0  0  0  0  0  0  0  0  0
  1  2  1  0  0  0  0
  1  3  1  0  0  0  0
  1  8  1  0  0  0  0
  1  9  1  0  0  0  0
  2  4  2  0  0  0  0
  2 10  1  0  0  0  0
  3  5  2  0  0  0  0
  3 11  1  0  0  0  0
  4  6  1  0  0  0  0
  4 12  1  0  0  0  0
  5  7  1  0  0  0  0
  5 13  1  0  0  0  0
  6  7  2  0  0  0  0
  6 14  1  0  0  0  0
  7 15  1  0  0  0  0
M  END
> <PUBCHEM_COMPOUND_CID>
11000

> <PUBCHEM_COMPOUND_CANONICALIZED>
1

> <PUBCHEM_CACTVS_COMPLEXITY>
102

> <PUBCHEM_CACTVS_HBOND_ACCEPTOR>
0

> <PUBCHEM_CACTVS_HBOND_DONOR>
0

> <PUBCHEM_CACTVS_ROTATABLE_BOND>
0

> <PUBCHEM_CACTVS_SUBSKEYS>
AAADccBgAAAAAAAAAAAAAAAAAAAAAAAAAAAAAAAABAAAAAAAAAAAGAAAAAAACACAAAAAAAAAAACAACBCAAAAAAAgAAAICAAAAAgIAAAAAQAAAAAAAAAIgAIAAAAAAAAAAAAAAAAAAAAAAAAAAAAAAAAAAA==

> <PUBCHEM_IUPAC_OPENEYE_NAME>
cyclohepta-1,3,5-triene

> <PUBCHEM_IUPAC_CAS_NAME>
cyclohepta-1,3,5-triene

> <PUBCHEM_IUPAC_NAME>
cyclohepta-1,3,5-triene

> <PUBCHEM_IUPAC_SYSTEMATIC_NAME>
cyclohepta-1,3,5-triene

> <PUBCHEM_IUPAC_TRADITIONAL_NAME>
cyclohepta-1,3,5-triene

> <PUBCHEM_IUPAC_INCHI>
InChI=1S/C7H8/c1-2-4-6-7-5-3-1/h1-6H,7H2

> <PUBCHEM_IUPAC_INCHIKEY>
CHVJITGCYZJHLR-UHFFFAOYSA-N

> <PUBCHEM_XLOGP3>
2.6

> <PUBCHEM_EXACT_MASS>
92.0626

> <PUBCHEM_MOLECULAR_FORMULA>
C7H8

> <PUBCHEM_MOLECULAR_WEIGHT>
92.13842

> <PUBCHEM_OPENEYE_CAN_SMILES>
C1C=CC=CC=C1

> <PUBCHEM_OPENEYE_ISO_SMILES>
C1C=CC=CC=C1

> <PUBCHEM_CACTVS_TPSA>
0

> <PUBCHEM_MONOISOTOPIC_WEIGHT>
92.0626

> <PUBCHEM_TOTAL_CHARGE>
0

> <PUBCHEM_HEAVY_ATOM_COUNT>
7

> <PUBCHEM_ATOM_DEF_STEREO_COUNT>
0

> <PUBCHEM_ATOM_UDEF_STEREO_COUNT>
0

> <PUBCHEM_BOND_DEF_STEREO_COUNT>
0

> <PUBCHEM_BOND_UDEF_STEREO_COUNT>
0

> <PUBCHEM_ISOTOPIC_ATOM_COUNT>
0

> <PUBCHEM_COMPONENT_COUNT>
1

> <PUBCHEM_CACTVS_TAUTO_COUNT>
1

> <PUBCHEM_COORDINATE_TYPE>
1
5
255

> <PUBCHEM_BONDANNOTATIONS>
1  2  8
1  3  8
2  4  8
3  5  8
4  6  8
5  7  8
6  7  8

$$$$

