4983
  -OEChem-06261200273D

 35 36  0     0  0  0  0  0  0999 V2000
   -0.3468    2.3860    0.2136 O   0  0  0  0  0  0  0  0  0  0  0  0
   -0.2286   -2.2521   -0.3718 O   0  5  0  0  0  0  0  0  0  0  0  0
   -0.7874    1.0809    0.3226 N   0  0  0  0  0  0  0  0  0  0  0  0
   -0.6801   -1.0865   -0.1349 N   0  3  0  0  0  0  0  0  0  0  0  0
   -2.1873    0.7951   -0.0008 C   0  0  0  0  0  0  0  0  0  0  0  0
   -2.1639   -0.8018    0.0123 C   0  0  0  0  0  0  0  0  0  0  0  0
    0.0468   -0.0728    0.0609 C   0  0  0  0  0  0  0  0  0  0  0  0
   -2.5177    1.3823   -1.3847 C   0  0  0  0  0  0  0  0  0  0  0  0
   -3.1058    1.4211    1.0507 C   0  0  0  0  0  0  0  0  0  0  0  0
   -2.5570   -1.4375    1.3529 C   0  0  0  0  0  0  0  0  0  0  0  0
   -2.8870   -1.4876   -1.1459 C   0  0  0  0  0  0  0  0  0  0  0  0
    1.4989   -0.0298    0.0320 C   0  0  0  0  0  0  0  0  0  0  0  0
    2.2382   -0.2546    1.2001 C   0  0  0  0  0  0  0  0  0  0  0  0
    2.1766    0.2374   -1.1643 C   0  0  0  0  0  0  0  0  0  0  0  0
    3.6323   -0.2129    1.1726 C   0  0  0  0  0  0  0  0  0  0  0  0
    3.5706    0.2789   -1.1920 C   0  0  0  0  0  0  0  0  0  0  0  0
    4.2983    0.0539   -0.0235 C   0  0  0  0  0  0  0  0  0  0  0  0
   -1.8240    1.0233   -2.1532 H   0  0  0  0  0  0  0  0  0  0  0  0
   -3.5387    1.1318   -1.6913 H   0  0  0  0  0  0  0  0  0  0  0  0
   -2.4423    2.4762   -1.3803 H   0  0  0  0  0  0  0  0  0  0  0  0
   -4.1442    1.1064    0.9015 H   0  0  0  0  0  0  0  0  0  0  0  0
   -2.8062    1.1578    2.0705 H   0  0  0  0  0  0  0  0  0  0  0  0
   -3.0790    2.5159    0.9957 H   0  0  0  0  0  0  0  0  0  0  0  0
   -3.6171   -1.2720    1.5716 H   0  0  0  0  0  0  0  0  0  0  0  0
   -2.3919   -2.5215    1.3440 H   0  0  0  0  0  0  0  0  0  0  0  0
   -1.9653   -1.0361    2.1832 H   0  0  0  0  0  0  0  0  0  0  0  0
   -2.8212   -2.5793   -1.0680 H   0  0  0  0  0  0  0  0  0  0  0  0
   -3.9503   -1.2257   -1.1485 H   0  0  0  0  0  0  0  0  0  0  0  0
   -2.4599   -1.2205   -2.1182 H   0  0  0  0  0  0  0  0  0  0  0  0
    0.2544    2.4575    0.9743 H   0  0  0  0  0  0  0  0  0  0  0  0
    1.7291   -0.4632    2.1378 H   0  0  0  0  0  0  0  0  0  0  0  0
    1.6191    0.4148   -2.0807 H   0  0  0  0  0  0  0  0  0  0  0  0
    4.1989   -0.3881    2.0823 H   0  0  0  0  0  0  0  0  0  0  0  0
    4.0894    0.4868   -2.1232 H   0  0  0  0  0  0  0  0  0  0  0  0
    5.3837    0.0863   -0.0451 H   0  0  0  0  0  0  0  0  0  0  0  0
  1  3  1  0  0  0  0
  1 30  1  0  0  0  0
  2  4  1  0  0  0  0
  3  5  1  0  0  0  0
  3  7  1  0  0  0  0
  4  6  1  0  0  0  0
  4  7  2  0  0  0  0
  5  6  1  0  0  0  0
  5  8  1  0  0  0  0
  5  9  1  0  0  0  0
  6 10  1  0  0  0  0
  6 11  1  0  0  0  0
  7 12  1  0  0  0  0
  8 18  1  0  0  0  0
  8 19  1  0  0  0  0
  8 20  1  0  0  0  0
  9 21  1  0  0  0  0
  9 22  1  0  0  0  0
  9 23  1  0  0  0  0
 10 24  1  0  0  0  0
 10 25  1  0  0  0  0
 10 26  1  0  0  0  0
 11 27  1  0  0  0  0
 11 28  1  0  0  0  0
 11 29  1  0  0  0  0
 12 13  2  0  0  0  0
 12 14  1  0  0  0  0
 13 15  1  0  0  0  0
 13 31  1  0  0  0  0
 14 16  2  0  0  0  0
 14 32  1  0  0  0  0
 15 17  2  0  0  0  0
 15 33  1  0  0  0  0
 16 17  1  0  0  0  0
 16 34  1  0  0  0  0
 17 35  1  0  0  0  0
M  CHG  2   2  -1   4   1
M  END
> <PUBCHEM_COMPOUND_CID>
4983

> <PUBCHEM_CONFORMER_RMSD>
0.6

> <PUBCHEM_CONFORMER_DIVERSEORDER>
1

> <PUBCHEM_MMFF94_PARTIAL_CHARGES>
19
1 -0.38
12 -0.02
13 -0.15
14 -0.15
15 -0.15
16 -0.15
17 -0.15
2 -0.63
3 -0.55
30 0.4
31 0.15
32 0.15
33 0.15
34 0.15
35 0.15
4 0.54
5 0.37
6 0.1
7 0.18

> <PUBCHEM_EFFECTIVE_ROTOR_COUNT>
1.6

> <PUBCHEM_PHARMACOPHORE_FEATURES>
6
1 2 anion
3 3 4 7 cation
3 5 8 9 hydrophobe
3 6 10 11 hydrophobe
5 3 4 5 6 7 rings
6 12 13 14 15 16 17 rings

> <PUBCHEM_HEAVY_ATOM_COUNT>
17

> <PUBCHEM_ATOM_DEF_STEREO_COUNT>
0

> <PUBCHEM_ATOM_UDEF_STEREO_COUNT>
0

> <PUBCHEM_BOND_DEF_STEREO_COUNT>
0

> <PUBCHEM_BOND_UDEF_STEREO_COUNT>
0

> <PUBCHEM_ISOTOPIC_ATOM_COUNT>
0

> <PUBCHEM_COMPONENT_COUNT>
1

> <PUBCHEM_CACTVS_TAUTO_COUNT>
1

> <PUBCHEM_CONFORMER_ID>
0000137700000001

> <PUBCHEM_MMFF94_ENERGY>
64.648

> <PUBCHEM_FEATURE_SELFOVERLAP>
30.471

> <PUBCHEM_SHAPE_FINGERPRINT>
11132069 177 18334012812982309129
11206711 2 18339934731470648247
12236239 1 17989207044986136826
12403814 3 17703785951245814309
12932764 1 18060136539936068364
13024252 1 15913609467352569569
13140716 1 18410007706794165345
13296908 3 18040435482110062390
13538477 17 18202565094465314552
13581323 91 18408888417126405170
13764800 53 18262507195419813945
14144814 61 18060421300689114098
14614273 12 18271247217918103861
15219456 202 17167864162503543202
15309172 13 18408317804513549539
15775835 57 18060414742142333884
16752209 62 18341345413189271423
16945 1 18262805188904204041
18175812 5 17458346338332069532
18186145 218 17895192242369906040
19422 9 17846776295865785210
19868273 325 18408603630313158501
200 152 16845294891075296027
20279233 1 17530966899492485126
20510252 161 18187079538012905720
20525323 117 18410009935902855331
20645476 183 17988926677699856711
22802520 49 17896583171644380694
23402539 116 18260835908102796884
23419403 2 16738092434848336851
23493267 7 18201431527730625410
23557571 272 17967532346260692462
23559900 14 18114461249834181726
2748010 2 18264219023392339737
3286 77 16153710869207975102
4175511 318 18130510820178773733
465052 167 18055334861315988699
77492 1 17989207044980875058
81228 2 17899426285260153902

> <PUBCHEM_SHAPE_MULTIPOLES>
328.15
6.72
1.8
1.34
5.07
0.07
-0.03
0.15
0.08
-1.77
-0.03
-0.09
-0.02
-0.35

> <PUBCHEM_SHAPE_SELFOVERLAP>
691.436

> <PUBCHEM_SHAPE_VOLUME>
188.7

> <PUBCHEM_COORDINATE_TYPE>
2
5
10

$$$$

