4774
  -OEChem-06261200203D

 38 40  0     0  0  0  0  0  0999 V2000
    3.8076   -3.6393   -0.4237 O   0  0  0  0  0  0  0  0  0  0  0  0
   -0.1809    0.1400    0.4325 N   0  0  0  0  0  0  0  0  0  0  0  0
    2.1553    2.8530    0.8120 N   0  0  0  0  0  0  0  0  0  0  0  0
    0.8212    2.5786   -0.9421 N   0  0  0  0  0  0  0  0  0  0  0  0
    0.2000    1.3677    1.1493 C   0  0  0  0  0  0  0  0  0  0  0  0
   -1.5670   -0.0458    0.2508 C   0  0  0  0  0  0  0  0  0  0  0  0
    0.8397   -0.8280    0.2143 C   0  0  0  0  0  0  0  0  0  0  0  0
    1.0479    2.2744    0.2974 C   0  0  0  0  0  0  0  0  0  0  0  0
   -2.1315   -1.3081    0.4348 C   0  0  0  0  0  0  0  0  0  0  0  0
   -2.3734    1.0325   -0.1130 C   0  0  0  0  0  0  0  0  0  0  0  0
    0.6570   -1.8091   -0.7508 C   0  0  0  0  0  0  0  0  0  0  0  0
    2.0044   -0.7767    0.9682 C   0  0  0  0  0  0  0  0  0  0  0  0
   -4.3089   -0.4135   -0.1087 C   0  0  0  0  0  0  0  0  0  0  0  0
   -3.5024   -1.4919    0.2551 C   0  0  0  0  0  0  0  0  0  0  0  0
   -3.7444    0.8487   -0.2927 C   0  0  0  0  0  0  0  0  0  0  0  0
    1.6576   -2.7568   -0.9659 C   0  0  0  0  0  0  0  0  0  0  0  0
    3.0051   -1.7244    0.7531 C   0  0  0  0  0  0  0  0  0  0  0  0
    2.8316   -2.7144   -0.2139 C   0  0  0  0  0  0  0  0  0  0  0  0
   -5.7746   -0.6101   -0.3007 C   0  0  0  0  0  0  0  0  0  0  0  0
    2.6980    3.6044   -0.1919 C   0  0  0  0  0  0  0  0  0  0  0  0
    1.8575    3.4187   -1.2643 C   0  0  0  0  0  0  0  0  0  0  0  0
    0.6674    1.1466    2.1163 H   0  0  0  0  0  0  0  0  0  0  0  0
   -0.6707    1.9617    1.4588 H   0  0  0  0  0  0  0  0  0  0  0  0
   -1.5444   -2.1625    0.7596 H   0  0  0  0  0  0  0  0  0  0  0  0
   -1.9674    2.0225   -0.2998 H   0  0  0  0  0  0  0  0  0  0  0  0
   -0.2238   -1.8478   -1.3846 H   0  0  0  0  0  0  0  0  0  0  0  0
    2.2028   -0.0511    1.7467 H   0  0  0  0  0  0  0  0  0  0  0  0
   -3.9326   -2.4776    0.4121 H   0  0  0  0  0  0  0  0  0  0  0  0
   -4.3618    1.6951   -0.5819 H   0  0  0  0  0  0  0  0  0  0  0  0
    2.5190    2.7554    1.7512 H   0  0  0  0  0  0  0  0  0  0  0  0
    1.5146   -3.5175   -1.7288 H   0  0  0  0  0  0  0  0  0  0  0  0
    3.9164   -1.6895    1.3442 H   0  0  0  0  0  0  0  0  0  0  0  0
    3.6012    4.1812   -0.0551 H   0  0  0  0  0  0  0  0  0  0  0  0
   -6.1704    0.0798   -1.0537 H   0  0  0  0  0  0  0  0  0  0  0  0
   -5.9950   -1.6249   -0.6491 H   0  0  0  0  0  0  0  0  0  0  0  0
   -6.3031   -0.4406    0.6426 H   0  0  0  0  0  0  0  0  0  0  0  0
    1.9459    3.8475   -2.2520 H   0  0  0  0  0  0  0  0  0  0  0  0
    3.5202   -4.2468   -1.1267 H   0  0  0  0  0  0  0  0  0  0  0  0
  1 18  1  0  0  0  0
  1 38  1  0  0  0  0
  2  5  1  0  0  0  0
  2  6  1  0  0  0  0
  2  7  1  0  0  0  0
  3  8  1  0  0  0  0
  3 20  1  0  0  0  0
  3 30  1  0  0  0  0
  4  8  2  0  0  0  0
  4 21  1  0  0  0  0
  5  8  1  0  0  0  0
  5 22  1  0  0  0  0
  5 23  1  0  0  0  0
  6  9  2  0  0  0  0
  6 10  1  0  0  0  0
  7 11  2  0  0  0  0
  7 12  1  0  0  0  0
  9 14  1  0  0  0  0
  9 24  1  0  0  0  0
 10 15  2  0  0  0  0
 10 25  1  0  0  0  0
 11 16  1  0  0  0  0
 11 26  1  0  0  0  0
 12 17  2  0  0  0  0
 12 27  1  0  0  0  0
 13 14  2  0  0  0  0
 13 15  1  0  0  0  0
 13 19  1  0  0  0  0
 14 28  1  0  0  0  0
 15 29  1  0  0  0  0
 16 18  2  0  0  0  0
 16 31  1  0  0  0  0
 17 18  1  0  0  0  0
 17 32  1  0  0  0  0
 19 34  1  0  0  0  0
 19 35  1  0  0  0  0
 19 36  1  0  0  0  0
 20 21  2  0  0  0  0
 20 33  1  0  0  0  0
 21 37  1  0  0  0  0
M  END
> <PUBCHEM_COMPOUND_CID>
4774

> <PUBCHEM_CONFORMER_RMSD>
0.6

> <PUBCHEM_CONFORMER_DIVERSEORDER>
1
33
19
18
25
17
30
24
10
27
7
14
20
28
13
32
4
26
2
8
31
11
15
29
9
22
23
6
3
5
16
12
21

> <PUBCHEM_MMFF94_PARTIAL_CHARGES>
33
1 -0.53
10 -0.15
11 -0.15
12 -0.15
13 -0.14
14 -0.15
15 -0.15
16 -0.15
17 -0.15
18 0.08
19 0.14
2 -0.57
20 -0.3
21 0.08
24 0.15
25 0.15
26 0.15
27 0.15
28 0.15
29 0.15
3 0.03
30 0.27
31 0.15
32 0.15
33 0.15
37 0.15
38 0.45
4 -0.57
5 0.55
6 0.1
7 0.1
8 0.01
9 -0.15

> <PUBCHEM_EFFECTIVE_ROTOR_COUNT>
4

> <PUBCHEM_PHARMACOPHORE_FEATURES>
7
1 1 donor
1 2 cation
1 3 donor
3 3 4 8 cation
5 3 4 8 20 21 rings
6 6 9 10 13 14 15 rings
6 7 11 12 16 17 18 rings

> <PUBCHEM_HEAVY_ATOM_COUNT>
21

> <PUBCHEM_ATOM_DEF_STEREO_COUNT>
0

> <PUBCHEM_ATOM_UDEF_STEREO_COUNT>
0

> <PUBCHEM_BOND_DEF_STEREO_COUNT>
0

> <PUBCHEM_BOND_UDEF_STEREO_COUNT>
0

> <PUBCHEM_ISOTOPIC_ATOM_COUNT>
0

> <PUBCHEM_COMPONENT_COUNT>
1

> <PUBCHEM_CACTVS_TAUTO_COUNT>
2

> <PUBCHEM_CONFORMER_ID>
000012A600000001

> <PUBCHEM_MMFF94_ENERGY>
72.1603

> <PUBCHEM_FEATURE_SELFOVERLAP>
35.522

> <PUBCHEM_SHAPE_FINGERPRINT>
11045515 52 18126277786337471204
11578080 2 16629148587513825534
11833330 49 17981323714055501490
11963148 33 17621327836134870611
12422481 6 18123505789165771576
12592029 89 18196931072003705792
12730499 353 18194109730163166347
12788726 201 17552072218345525898
12839892 36 17977680713894006667
13257819 37 17480559569631364644
133893 2 18268123444827204465
13681431 1 18339352054516223248
138480 1 18410574024033107588
13955234 65 18337668616573241499
14347424 109 18265593461179295619
14508225 48 18121220037271392990
14790565 3 17042877998924281003
14955137 171 18335708204731698152
15502722 9 18339921507171456361
167882 2 18340204073080507164
17134986 127 18052253994958158892
17357779 13 17974871753721683428
17492 54 18199447923635649420
1813 80 18266456683988907867
18785283 64 18342453695234958089
18915476 22 18196915713474780251
19591789 44 17616530662084643946
20600515 1 17972030607059026234
20645477 70 18339932524184706707
21304303 282 16400603241850473540
21524375 3 17838903637538711073
22907989 373 17690556816281746470
23114952 82 18342459214505381925
23366157 5 18201438047564755563
23402539 116 18048322437703607975
23419403 2 17844556416111848820
23557571 272 17830454247672981262
23559900 14 18410018740918303539
23566358 27 18337113358980496559
298252 57 17767124202873673816
3060560 45 18197215854432580612
314173 41 18339922726958590587
4409770 3 17407124729821100885
458136 41 18122044430542413857
46194498 28 18197527115439532423
6025842 7 18337395925015673383
6138700 20 18340480094155731316
6669772 16 18046051680531863892
7364860 26 18409730625510527617
81228 2 17831849527448399306
81539 233 18198345044041369405
9709674 26 18411983538322545091
9841814 1 18130514114492471731

> <PUBCHEM_SHAPE_MULTIPOLES>
411.36
7.7
4.66
1.01
11.35
1.47
0.03
-2.53
0.62
-7.72
1.27
-0.49
0.2
0.1

> <PUBCHEM_SHAPE_SELFOVERLAP>
898.403

> <PUBCHEM_SHAPE_VOLUME>
226

> <PUBCHEM_COORDINATE_TYPE>
2
5
10

$$$$

