4968
  -OEChem-06261200262D

 47 49  0     1  0  0  0  0  0999 V2000
    8.9086    0.1018    0.0000 O   0  0  0  0  0  0  0  0  0  0  0  0
   10.0010    2.8366    0.0000 O   0  0  0  0  0  0  0  0  0  0  0  0
    9.8200    1.1140    0.0000 O   0  0  0  0  0  0  0  0  0  0  0  0
    5.7281   -1.5966    0.0000 O   0  0  0  0  0  0  0  0  0  0  0  0
    2.0000   -0.6184    0.0000 O   0  0  0  0  0  0  0  0  0  0  0  0
    7.7496    1.3890    0.0000 N   0  0  0  0  0  0  0  0  0  0  0  0
    6.2633    0.0507    0.0000 N   0  0  0  0  0  0  0  0  0  0  0  0
    3.7601   -0.8972    0.0000 N   0  0  0  0  0  0  0  0  0  0  0  0
    8.6823   -2.4965    0.0000 N   0  0  0  0  0  0  0  0  0  0  0  0
    9.9914   -1.5455    0.0000 N   0  0  0  0  0  0  0  0  0  0  0  0
    8.4187    2.1321    0.0000 C   0  0  3  0  0  0  0  0  0  0  0  0
    7.9187    2.9981    0.0000 C   0  0  0  0  0  0  0  0  0  0  0  0
    6.8360    1.7957    0.0000 C   0  0  0  0  0  0  0  0  0  0  0  0
    6.9406    2.7902    0.0000 C   0  0  0  0  0  0  0  0  0  0  0  0
    7.2144   -0.2583    0.0000 C   0  0  3  0  0  0  0  0  0  0  0  0
    7.9575    0.4108    0.0000 C   0  0  0  0  0  0  0  0  0  0  0  0
    4.5691   -0.3094    0.0000 C   0  0  3  0  0  0  0  0  0  0  0  0
    7.4223   -1.2365    0.0000 C   0  0  0  0  0  0  0  0  0  0  0  0
    4.2601    0.6416    0.0000 C   0  0  0  0  0  0  0  0  0  0  0  0
    9.4132    2.0276    0.0000 C   0  0  0  0  0  0  0  0  0  0  0  0
    5.5202   -0.6184    0.0000 C   0  0  0  0  0  0  0  0  0  0  0  0
    3.2601    0.6416    0.0000 C   0  0  0  0  0  0  0  0  0  0  0  0
    2.9511   -0.3094    0.0000 C   0  0  0  0  0  0  0  0  0  0  0  0
    8.3733   -1.5455    0.0000 C   0  0  0  0  0  0  0  0  0  0  0  0
    9.1823   -0.9577    0.0000 C   0  0  0  0  0  0  0  0  0  0  0  0
    9.6823   -2.4965    0.0000 C   0  0  0  0  0  0  0  0  0  0  0  0
    8.7233    1.3386    0.0000 H   0  0  0  0  0  0  0  0  0  0  0  0
    8.4851    3.2503    0.0000 H   0  0  0  0  0  0  0  0  0  0  0  0
    7.7271    3.5878    0.0000 H   0  0  0  0  0  0  0  0  0  0  0  0
    6.2296    1.9246    0.0000 H   0  0  0  0  0  0  0  0  0  0  0  0
    6.6444    1.2060    0.0000 H   0  0  0  0  0  0  0  0  0  0  0  0
    6.8758    3.4068    0.0000 H   0  0  0  0  0  0  0  0  0  0  0  0
    6.3206    2.7902    0.0000 H   0  0  0  0  0  0  0  0  0  0  0  0
    6.5827   -0.8271    0.0000 H   0  0  0  0  0  0  0  0  0  0  0  0
    4.7021   -1.1490    0.0000 H   0  0  0  0  0  0  0  0  0  0  0  0
    6.8026   -1.2581    0.0000 H   0  0  0  0  0  0  0  0  0  0  0  0
    7.3360   -1.8504    0.0000 H   0  0  0  0  0  0  0  0  0  0  0  0
    4.8665    0.7705    0.0000 H   0  0  0  0  0  0  0  0  0  0  0  0
    4.1953    1.2582    0.0000 H   0  0  0  0  0  0  0  0  0  0  0  0
    6.1344    0.6572    0.0000 H   0  0  0  0  0  0  0  0  0  0  0  0
    3.3249    1.2582    0.0000 H   0  0  0  0  0  0  0  0  0  0  0  0
    2.6536    0.7705    0.0000 H   0  0  0  0  0  0  0  0  0  0  0  0
    3.7601   -1.5172    0.0000 H   0  0  0  0  0  0  0  0  0  0  0  0
   10.6176    2.7718    0.0000 H   0  0  0  0  0  0  0  0  0  0  0  0
    8.3179   -2.9981    0.0000 H   0  0  0  0  0  0  0  0  0  0  0  0
    9.1823   -0.3377    0.0000 H   0  0  0  0  0  0  0  0  0  0  0  0
   10.0468   -2.9981    0.0000 H   0  0  0  0  0  0  0  0  0  0  0  0
  1 16  2  0  0  0  0
  2 20  1  0  0  0  0
  2 44  1  0  0  0  0
  3 20  2  0  0  0  0
  4 21  2  0  0  0  0
  5 23  2  0  0  0  0
  6 11  1  0  0  0  0
  6 13  1  0  0  0  0
  6 16  1  0  0  0  0
  7 15  1  0  0  0  0
  7 21  1  0  0  0  0
  7 40  1  0  0  0  0
  8 17  1  0  0  0  0
  8 23  1  0  0  0  0
  8 43  1  0  0  0  0
  9 24  1  0  0  0  0
  9 26  1  0  0  0  0
  9 45  1  0  0  0  0
 10 25  1  0  0  0  0
 10 26  2  0  0  0  0
 11 12  1  0  0  0  0
 11 20  1  0  0  0  0
 11 27  1  0  0  0  0
 12 14  1  0  0  0  0
 12 28  1  0  0  0  0
 12 29  1  0  0  0  0
 13 14  1  0  0  0  0
 13 30  1  0  0  0  0
 13 31  1  0  0  0  0
 14 32  1  0  0  0  0
 14 33  1  0  0  0  0
 15 16  1  0  0  0  0
 15 18  1  0  0  0  0
 15 34  1  0  0  0  0
 17 19  1  0  0  0  0
 17 21  1  0  0  0  0
 17 35  1  0  0  0  0
 18 24  1  0  0  0  0
 18 36  1  0  0  0  0
 18 37  1  0  0  0  0
 19 22  1  0  0  0  0
 19 38  1  0  0  0  0
 19 39  1  0  0  0  0
 22 23  1  0  0  0  0
 22 41  1  0  0  0  0
 22 42  1  0  0  0  0
 24 25  2  0  0  0  0
 25 46  1  0  0  0  0
 26 47  1  0  0  0  0
M  END
> <PUBCHEM_COMPOUND_CID>
4968

> <PUBCHEM_COMPOUND_CANONICALIZED>
1

> <PUBCHEM_CACTVS_COMPLEXITY>
598

> <PUBCHEM_CACTVS_HBOND_ACCEPTOR>
6

> <PUBCHEM_CACTVS_HBOND_DONOR>
4

> <PUBCHEM_CACTVS_ROTATABLE_BOND>
6

> <PUBCHEM_CACTVS_SUBSKEYS>
AAADceB7uAAAAAAAAAAAAAAAAAAAAWLFgAAAAAAAAAAAAAABgAAAHgAQCAAACCjBlgQtmBfJkgCoARX3fAAAgC2xEqABUYG4cAiCaBJA2SGUQAAMlgLQQCCcEwIAAAAAAAAAAAAAAAAAAAAAAAAAAAAAAA==

> <PUBCHEM_IUPAC_OPENEYE_NAME>
1-[3-(1H-imidazol-5-yl)-2-[(5-oxopyrrolidine-2-carbonyl)amino]propanoyl]pyrrolidine-2-carboxylic acid

> <PUBCHEM_IUPAC_CAS_NAME>
1-[3-(1H-imidazol-5-yl)-1-oxo-2-[[oxo-(5-oxo-2-pyrrolidinyl)methyl]amino]propyl]-2-pyrrolidinecarboxylic acid

> <PUBCHEM_IUPAC_NAME>
1-[3-(1H-imidazol-5-yl)-2-[(5-oxopyrrolidine-2-carbonyl)amino]propanoyl]pyrrolidine-2-carboxylic acid

> <PUBCHEM_IUPAC_SYSTEMATIC_NAME>
1-[3-(1H-imidazol-5-yl)-2-[(5-oxidanylidenepyrrolidin-2-yl)carbonylamino]propanoyl]pyrrolidine-2-carboxylic acid

> <PUBCHEM_IUPAC_TRADITIONAL_NAME>
1-[3-(1H-imidazol-5-yl)-2-(pyroglutamoylamino)propanoyl]proline

> <PUBCHEM_IUPAC_INCHI>
InChI=1S/C16H21N5O5/c22-13-4-3-10(19-13)14(23)20-11(6-9-7-17-8-18-9)15(24)21-5-1-2-12(21)16(25)26/h7-8,10-12H,1-6H2,(H,17,18)(H,19,22)(H,20,23)(H,25,26)

> <PUBCHEM_IUPAC_INCHIKEY>
ITYONPBTNRIEBA-UHFFFAOYSA-N

> <PUBCHEM_XLOGP3>
-1.8

> <PUBCHEM_EXACT_MASS>
363.154269

> <PUBCHEM_MOLECULAR_FORMULA>
C16H21N5O5

> <PUBCHEM_MOLECULAR_WEIGHT>
363.36844

> <PUBCHEM_OPENEYE_CAN_SMILES>
C1CC(N(C1)C(=O)C(CC2=CN=CN2)NC(=O)C3CCC(=O)N3)C(=O)O

> <PUBCHEM_OPENEYE_ISO_SMILES>
C1CC(N(C1)C(=O)C(CC2=CN=CN2)NC(=O)C3CCC(=O)N3)C(=O)O

> <PUBCHEM_CACTVS_TPSA>
145

> <PUBCHEM_MONOISOTOPIC_WEIGHT>
363.154269

> <PUBCHEM_TOTAL_CHARGE>
0

> <PUBCHEM_HEAVY_ATOM_COUNT>
26

> <PUBCHEM_ATOM_DEF_STEREO_COUNT>
0

> <PUBCHEM_ATOM_UDEF_STEREO_COUNT>
3

> <PUBCHEM_BOND_DEF_STEREO_COUNT>
0

> <PUBCHEM_BOND_UDEF_STEREO_COUNT>
0

> <PUBCHEM_ISOTOPIC_ATOM_COUNT>
0

> <PUBCHEM_COMPONENT_COUNT>
1

> <PUBCHEM_CACTVS_TAUTO_COUNT>
12

> <PUBCHEM_COORDINATE_TYPE>
1
5
255

> <PUBCHEM_BONDANNOTATIONS>
10  25  8
10  26  8
11  27  3
15  34  3
17  35  3
24  25  8
9  24  8
9  26  8

$$$$

