13280
  -OEChem-06261208283D

 30 30  0     0  0  0  0  0  0999 V2000
   -5.2846    1.7769    0.0846 Cl  0  0  0  0  0  0  0  0  0  0  0  0
    3.9416    0.3240    0.0369 S   0  0  0  0  0  0  0  0  0  0  0  0
    4.1977    1.7421   -0.1731 O   0  0  0  0  0  0  0  0  0  0  0  0
    4.5321   -0.3556    1.1817 O   0  0  0  0  0  0  0  0  0  0  0  0
   -2.4485    1.7684    0.0618 O   0  0  0  0  0  0  0  0  0  0  0  0
   -1.9268   -0.5215    0.1640 N   0  0  0  0  0  0  0  0  0  0  0  0
    4.3624   -0.5282   -1.3831 N   0  0  0  0  0  0  0  0  0  0  0  0
   -0.5465   -0.3222    0.1347 C   0  0  0  0  0  0  0  0  0  0  0  0
   -2.4996   -1.9021    0.2383 C   0  0  0  0  0  0  0  0  0  0  0  0
    2.2141    0.0755    0.0747 C   0  0  0  0  0  0  0  0  0  0  0  0
   -0.0155    0.7827   -0.5305 C   0  0  0  0  0  0  0  0  0  0  0  0
    0.3028   -1.2284    0.7700 C   0  0  0  0  0  0  0  0  0  0  0  0
    1.3648    0.9815   -0.5606 C   0  0  0  0  0  0  0  0  0  0  0  0
    1.6831   -1.0294    0.7400 C   0  0  0  0  0  0  0  0  0  0  0  0
   -2.8360    0.5992    0.1234 C   0  0  0  0  0  0  0  0  0  0  0  0
   -2.7199   -2.4519   -1.1579 C   0  0  0  0  0  0  0  0  0  0  0  0
   -4.3211    0.2889    0.1952 C   0  0  0  0  0  0  0  0  0  0  0  0
   -1.8635   -2.5826    0.8047 H   0  0  0  0  0  0  0  0  0  0  0  0
   -3.4471   -1.8944    0.7805 H   0  0  0  0  0  0  0  0  0  0  0  0
   -0.6114    1.4725   -1.1177 H   0  0  0  0  0  0  0  0  0  0  0  0
   -0.0511   -2.0820    1.3361 H   0  0  0  0  0  0  0  0  0  0  0  0
    1.7592    1.8345   -1.1059 H   0  0  0  0  0  0  0  0  0  0  0  0
    2.3262   -1.7458    1.2434 H   0  0  0  0  0  0  0  0  0  0  0  0
   -3.3607   -1.8044   -1.7627 H   0  0  0  0  0  0  0  0  0  0  0  0
   -1.7675   -2.5566   -1.6887 H   0  0  0  0  0  0  0  0  0  0  0  0
   -3.1865   -3.4407   -1.1068 H   0  0  0  0  0  0  0  0  0  0  0  0
   -4.6304   -0.3559   -0.6275 H   0  0  0  0  0  0  0  0  0  0  0  0
   -4.5631   -0.1652    1.1584 H   0  0  0  0  0  0  0  0  0  0  0  0
    4.6496    0.0219   -2.2018 H   0  0  0  0  0  0  0  0  0  0  0  0
    4.8762   -1.4111   -1.2746 H   0  0  0  0  0  0  0  0  0  0  0  0
  1 17  1  0  0  0  0
  2  3  2  0  0  0  0
  2  4  2  0  0  0  0
  2  7  1  0  0  0  0
  2 10  1  0  0  0  0
  5 15  2  0  0  0  0
  6  8  1  0  0  0  0
  6  9  1  0  0  0  0
  6 15  1  0  0  0  0
  7 29  1  0  0  0  0
  7 30  1  0  0  0  0
  8 11  2  0  0  0  0
  8 12  1  0  0  0  0
  9 16  1  0  0  0  0
  9 18  1  0  0  0  0
  9 19  1  0  0  0  0
 10 13  2  0  0  0  0
 10 14  1  0  0  0  0
 11 13  1  0  0  0  0
 11 20  1  0  0  0  0
 12 14  2  0  0  0  0
 12 21  1  0  0  0  0
 13 22  1  0  0  0  0
 14 23  1  0  0  0  0
 15 17  1  0  0  0  0
 16 24  1  0  0  0  0
 16 25  1  0  0  0  0
 16 26  1  0  0  0  0
 17 27  1  0  0  0  0
 17 28  1  0  0  0  0
M  END
> <PUBCHEM_COMPOUND_CID>
13280

> <PUBCHEM_CONFORMER_RMSD>
0.6

> <PUBCHEM_CONFORMER_DIVERSEORDER>
1
11
14
5
49
27
26
28
50
34
15
33
25
16
3
41
4
2
37
6
7
10
51
8
52
13
12
40
39
38
29
17
9
42
18
30
32
31
48
47
20
19
24
23
21
43
22
36
44
35
46
45

> <PUBCHEM_MMFF94_PARTIAL_CHARGES>
22
1 -0.29
10 -0.01
11 -0.15
12 -0.15
13 -0.15
14 -0.15
15 0.57
17 0.35
2 1.45
20 0.15
21 0.15
22 0.15
23 0.15
29 0.42
3 -0.65
30 0.42
4 -0.65
5 -0.57
6 -0.48
7 -0.98
8 0.12
9 0.3

> <PUBCHEM_EFFECTIVE_ROTOR_COUNT>
5

> <PUBCHEM_PHARMACOPHORE_FEATURES>
5
1 3 acceptor
1 4 acceptor
1 5 acceptor
1 7 donor
6 8 10 11 12 13 14 rings

> <PUBCHEM_HEAVY_ATOM_COUNT>
17

> <PUBCHEM_ATOM_DEF_STEREO_COUNT>
0

> <PUBCHEM_ATOM_UDEF_STEREO_COUNT>
0

> <PUBCHEM_BOND_DEF_STEREO_COUNT>
0

> <PUBCHEM_BOND_UDEF_STEREO_COUNT>
0

> <PUBCHEM_ISOTOPIC_ATOM_COUNT>
0

> <PUBCHEM_COMPONENT_COUNT>
1

> <PUBCHEM_CACTVS_TAUTO_COUNT>
1

> <PUBCHEM_CONFORMER_ID>
000033E000000001

> <PUBCHEM_MMFF94_ENERGY>
40.4938

> <PUBCHEM_FEATURE_SELFOVERLAP>
25.389

> <PUBCHEM_SHAPE_FINGERPRINT>
10014705 185 18410857642362107177
10062212 137 18343027657337041322
11132069 177 18411984654559906536
12251169 10 18343585161408808369
12500047 106 18113905948521454999
13214271 11 17918269840580893971
13583140 156 16877951494833028782
13675066 3 18060413616649782321
13760787 5 17203332195739321902
14897335 6 18412265060200497843
15196674 1 18343019965002855504
18186145 218 18130791135936112652
19026448 4 17603585197369068714
19050596 39 18202007624858527626
200 152 18269565935811827495
20281475 54 17632580414141734098
20645477 56 18407758149079541017
20645477 70 15936684965103036556
20871999 31 18114751430119063103
23402539 116 18187373142584148925
23402655 69 18411981343166436708
23557571 272 18041274357794930247
23558518 356 17913767215394122009
23559900 14 18113613500303859518
268830 7 17846226509971327700
34934 24 18343024406347121185
4990 188 18334287691369145358
5104073 3 18201441337578569232
573450 72 18340218418150034810
633830 44 18131064901372946750
69090 78 18409168835572686127
7832392 63 18412545401110689429
9981440 41 17119445806006629672

> <PUBCHEM_SHAPE_MULTIPOLES>
328
9.87
2.03
0.96
0.82
0.53
0.11
-3.68
0.1
-2.09
0.32
0.54
0.32
-0.63

> <PUBCHEM_SHAPE_SELFOVERLAP>
649.381

> <PUBCHEM_SHAPE_VOLUME>
196.4

> <PUBCHEM_COORDINATE_TYPE>
2
5
10

$$$$

