4141
  -OEChem-06251223553D

 27 27  0     0  0  0  0  0  0999 V2000
    1.1013   -0.6859    0.4407 O   0  0  0  0  0  0  0  0  0  0  0  0
   -2.0556   -0.1562   -0.0819 N   0  3  0  0  0  0  0  0  0  0  0  0
   -1.0612    0.1882    1.0176 C   0  0  0  0  0  0  0  0  0  0  0  0
   -1.6117   -1.4300   -0.7867 C   0  0  0  0  0  0  0  0  0  0  0  0
   -3.4335   -0.3682    0.5288 C   0  0  0  0  0  0  0  0  0  0  0  0
   -2.1163    0.9849   -1.0870 C   0  0  0  0  0  0  0  0  0  0  0  0
    0.3244    0.4125    0.4936 C   0  0  0  0  0  0  0  0  0  0  0  0
    0.9647    1.5239    0.0533 C   0  0  0  0  0  0  0  0  0  0  0  0
    2.2942   -0.2642   -0.0553 C   0  0  0  0  0  0  0  0  0  0  0  0
    2.2611    1.0871   -0.3098 C   0  0  0  0  0  0  0  0  0  0  0  0
    3.3325   -1.2922   -0.2132 C   0  0  0  0  0  0  0  0  0  0  0  0
   -1.0708   -0.6350    1.7425 H   0  0  0  0  0  0  0  0  0  0  0  0
   -1.4272    1.0905    1.5225 H   0  0  0  0  0  0  0  0  0  0  0  0
   -1.4628   -2.2122   -0.0364 H   0  0  0  0  0  0  0  0  0  0  0  0
   -2.4036   -1.7251   -1.4827 H   0  0  0  0  0  0  0  0  0  0  0  0
   -0.6938   -1.2429   -1.3501 H   0  0  0  0  0  0  0  0  0  0  0  0
   -3.7361    0.5566    1.0289 H   0  0  0  0  0  0  0  0  0  0  0  0
   -4.1362   -0.6158   -0.2723 H   0  0  0  0  0  0  0  0  0  0  0  0
   -3.3705   -1.1905    1.2477 H   0  0  0  0  0  0  0  0  0  0  0  0
   -2.3122    1.9172   -0.5490 H   0  0  0  0  0  0  0  0  0  0  0  0
   -1.1795    1.0390   -1.6469 H   0  0  0  0  0  0  0  0  0  0  0  0
   -2.9345    0.7778   -1.7843 H   0  0  0  0  0  0  0  0  0  0  0  0
    0.5687    2.5274   -0.0056 H   0  0  0  0  0  0  0  0  0  0  0  0
    3.0686    1.6853   -0.7070 H   0  0  0  0  0  0  0  0  0  0  0  0
    4.2531   -0.8646   -0.6225 H   0  0  0  0  0  0  0  0  0  0  0  0
    3.5709   -1.7493    0.7521 H   0  0  0  0  0  0  0  0  0  0  0  0
    2.9932   -2.0799   -0.8930 H   0  0  0  0  0  0  0  0  0  0  0  0
  1  7  1  0  0  0  0
  1  9  1  0  0  0  0
  2  3  1  0  0  0  0
  2  4  1  0  0  0  0
  2  5  1  0  0  0  0
  2  6  1  0  0  0  0
  3  7  1  0  0  0  0
  3 12  1  0  0  0  0
  3 13  1  0  0  0  0
  4 14  1  0  0  0  0
  4 15  1  0  0  0  0
  4 16  1  0  0  0  0
  5 17  1  0  0  0  0
  5 18  1  0  0  0  0
  5 19  1  0  0  0  0
  6 20  1  0  0  0  0
  6 21  1  0  0  0  0
  6 22  1  0  0  0  0
  7  8  2  0  0  0  0
  8 10  1  0  0  0  0
  8 23  1  0  0  0  0
  9 10  2  0  0  0  0
  9 11  1  0  0  0  0
 10 24  1  0  0  0  0
 11 25  1  0  0  0  0
 11 26  1  0  0  0  0
 11 27  1  0  0  0  0
M  CHG  1   2   1
M  END
> <PUBCHEM_COMPOUND_CID>
4141

> <PUBCHEM_CONFORMER_RMSD>
0.4

> <PUBCHEM_CONFORMER_DIVERSEORDER>
2
1
8
7
3
5
4
6

> <PUBCHEM_MMFF94_PARTIAL_CHARGES>
13
1 -0.28
10 -0.15
11 0.18
2 -1.01
23 0.15
24 0.15
3 0.68
4 0.5
5 0.5
6 0.5
7 -0.04
8 -0.15
9 -0.04

> <PUBCHEM_EFFECTIVE_ROTOR_COUNT>
2

> <PUBCHEM_PHARMACOPHORE_FEATURES>
3
1 1 acceptor
1 2 cation
5 1 7 8 9 10 rings

> <PUBCHEM_HEAVY_ATOM_COUNT>
11

> <PUBCHEM_ATOM_DEF_STEREO_COUNT>
0

> <PUBCHEM_ATOM_UDEF_STEREO_COUNT>
0

> <PUBCHEM_BOND_DEF_STEREO_COUNT>
0

> <PUBCHEM_BOND_UDEF_STEREO_COUNT>
0

> <PUBCHEM_ISOTOPIC_ATOM_COUNT>
0

> <PUBCHEM_COMPONENT_COUNT>
1

> <PUBCHEM_CACTVS_TAUTO_COUNT>
1

> <PUBCHEM_CONFORMER_ID>
0000102D00000002

> <PUBCHEM_MMFF94_ENERGY>
21.5717

> <PUBCHEM_FEATURE_SELFOVERLAP>
15.223

> <PUBCHEM_SHAPE_FINGERPRINT>
10857977 72 5545188441487490288
11062470 55 7493006250062048587
12897270 3 17989212520842637893
12932764 1 18412267207330698400
14128692 85 18333732403526558062
15310529 11 18273215279011946477
15775835 57 18337946779692297269
16945 1 18187369830568069608
17844478 74 17917422112620555161
18619055 16 18333735706055812884
19422 9 18335974282050315683
20528008 55 7420947556322562641
20653085 51 18131349743350933109
22802520 49 17917156107725758748
23552423 10 18263928726352011702
3248919 1 16805318877266500428
369184 2 7853581205623901805
5084963 1 18273211984788004161
9939556 21 18261391105186529085

> <PUBCHEM_SHAPE_MULTIPOLES>
215.52
5.05
1.46
0.95
0.17
0.01
-0.05
1.36
-0.27
-0.5
-0.27
0.48
-0.05
0.07

> <PUBCHEM_SHAPE_SELFOVERLAP>
428.89

> <PUBCHEM_SHAPE_VOLUME>
132.9

> <PUBCHEM_COORDINATE_TYPE>
2
5
10

$$$$

