8377
  -OEChem-06261202473D

 19 19  0     0  0  0  0  0  0999 V2000
    2.9557    0.2294    0.0010 Cl  0  0  0  0  0  0  0  0  0  0  0  0
   -3.6291    0.9447   -0.0008 O   0  0  0  0  0  0  0  0  0  0  0  0
   -3.6359   -1.3283   -0.0011 O   0  0  0  0  0  0  0  0  0  0  0  0
    0.8058   -3.4747    0.0007 O   0  5  0  0  0  0  0  0  0  0  0  0
    0.2248    3.5292   -0.0007 O   0  5  0  0  0  0  0  0  0  0  0  0
    2.6504   -2.2846   -0.0014 O   0  0  0  0  0  0  0  0  0  0  0  0
    2.2401    2.6589   -0.0010 O   0  0  0  0  0  0  0  0  0  0  0  0
    1.4007   -2.3721   -0.0003 N   0  3  0  0  0  0  0  0  0  0  0  0
    0.9930    2.5395   -0.0004 N   0  3  0  0  0  0  0  0  0  0  0  0
   -1.5566   -0.1449    0.0017 C   0  0  0  0  0  0  0  0  0  0  0  0
    0.6286   -1.1756   -0.0004 C   0  0  0  0  0  0  0  0  0  0  0  0
    0.4283    1.2322    0.0011 C   0  0  0  0  0  0  0  0  0  0  0  0
   -0.9618    1.1167    0.0020 C   0  0  0  0  0  0  0  0  0  0  0  0
   -0.7616   -1.2910    0.0004 C   0  0  0  0  0  0  0  0  0  0  0  0
    1.2236    0.0862   -0.0001 C   0  0  0  0  0  0  0  0  0  0  0  0
   -3.0060   -0.2656   -0.0006 C   0  0  0  0  0  0  0  0  0  0  0  0
   -1.5816    2.0092    0.0024 H   0  0  0  0  0  0  0  0  0  0  0  0
   -1.2479   -2.2639   -0.0002 H   0  0  0  0  0  0  0  0  0  0  0  0
   -4.6057    0.8524   -0.0017 H   0  0  0  0  0  0  0  0  0  0  0  0
  1 15  1  0  0  0  0
  2 16  1  0  0  0  0
  2 19  1  0  0  0  0
  3 16  2  0  0  0  0
  4  8  1  0  0  0  0
  5  9  1  0  0  0  0
  6  8  2  0  0  0  0
  7  9  2  0  0  0  0
  8 11  1  0  0  0  0
  9 12  1  0  0  0  0
 10 13  2  0  0  0  0
 10 14  1  0  0  0  0
 10 16  1  0  0  0  0
 11 14  2  0  0  0  0
 11 15  1  0  0  0  0
 12 13  1  0  0  0  0
 12 15  2  0  0  0  0
 13 17  1  0  0  0  0
 14 18  1  0  0  0  0
M  CHG  4   4  -1   5  -1   8   1   9   1
M  END
> <PUBCHEM_COMPOUND_CID>
8377

> <PUBCHEM_CONFORMER_RMSD>
0.6

> <PUBCHEM_CONFORMER_DIVERSEORDER>
1

> <PUBCHEM_MMFF94_PARTIAL_CHARGES>
19
1 -0.18
10 0.09
11 0.13
12 0.13
13 -0.15
14 -0.15
15 0.18
16 0.63
17 0.15
18 0.15
19 0.5
2 -0.65
3 -0.57
4 -0.52
5 -0.52
6 -0.52
7 -0.52
8 0.91
9 0.91

> <PUBCHEM_EFFECTIVE_ROTOR_COUNT>
3

> <PUBCHEM_PHARMACOPHORE_FEATURES>
10
1 2 acceptor
1 3 acceptor
1 4 acceptor
1 4 anion
1 5 acceptor
1 5 anion
1 6 acceptor
1 7 acceptor
3 2 3 16 anion
6 10 11 12 13 14 15 rings

> <PUBCHEM_HEAVY_ATOM_COUNT>
16

> <PUBCHEM_ATOM_DEF_STEREO_COUNT>
0

> <PUBCHEM_ATOM_UDEF_STEREO_COUNT>
0

> <PUBCHEM_BOND_DEF_STEREO_COUNT>
0

> <PUBCHEM_BOND_UDEF_STEREO_COUNT>
0

> <PUBCHEM_ISOTOPIC_ATOM_COUNT>
0

> <PUBCHEM_COMPONENT_COUNT>
1

> <PUBCHEM_CACTVS_TAUTO_COUNT>
1

> <PUBCHEM_CONFORMER_ID>
000020B900000001

> <PUBCHEM_MMFF94_ENERGY>
70.869

> <PUBCHEM_FEATURE_SELFOVERLAP>
50.965

> <PUBCHEM_SHAPE_FINGERPRINT>
1 1 18267022756494063381
10967382 1 18338798888324111814
11471102 20 18411423938152925135
116883 192 17759244389715717815
12553582 1 18122341547727271323
13140716 1 18194402178011081227
13380535 76 17904202529400294748
13380536 305 18266171730157083756
14251717 144 18338241466220642327
14648413 74 18413388726845588051
14790565 3 18339065013457978660
15042514 8 16827273152509117675
15442244 35 18192428791443017321
15490181 7 17835792002599545434
15490181 8 17904774279783929566
16945 1 18410855438853817859
17990270 104 18412266146801018955
193761 8 17834396000910730660
19591789 44 18267579096609048950
20510252 161 16965491638271044792
20645476 183 17626655008477516028
20645477 70 18269847436906423439
20711985 365 17763745790193147469
21501502 16 17906448084611060938
21524375 3 17912090451587861001
2334 1 17834394514561785472
23419403 2 17628673948128019444
23526114 1 18410575097695810423
23552423 10 18408604730278356447
23557571 272 17467070078631095718
241688 4 18050566545066822930
2748010 2 18193565694533488534
3071541 12 18410007728194849517
3091708 16 9288895783065750619
352729 6 17617941331286935559
54173680 148 17402049397095505026
7364860 26 18410292493274465635
7832392 63 18336545044623029873
81228 2 17690561209584747491

> <PUBCHEM_SHAPE_MULTIPOLES>
285.96
4.51
3.69
0.57
3.41
0.24
0
-0.32
0
-2.42
0
0
0
0

> <PUBCHEM_SHAPE_SELFOVERLAP>
606.437

> <PUBCHEM_SHAPE_VOLUME>
161.5

> <PUBCHEM_COORDINATE_TYPE>
2
5
10

$$$$

