47205081
  -OEChem-06241222583D

 34 35  0     0  0  0  0  0  0999 V2000
    1.4389    0.2247   -1.0721 O   0  0  0  0  0  0  0  0  0  0  0  0
    3.1653   -1.8615   -0.4175 O   0  0  0  0  0  0  0  0  0  0  0  0
   -0.9587   -0.8575   -1.6448 O   0  0  0  0  0  0  0  0  0  0  0  0
   -2.0878    1.0860   -1.0486 N   0  0  0  0  0  0  0  0  0  0  0  0
   -5.0378    0.6686    0.5952 N   0  0  0  0  0  0  0  0  0  0  0  0
   -5.5032   -0.0282    1.6460 N   0  0  0  0  0  0  0  0  0  0  0  0
   -3.4258    0.6188   -1.3282 C   0  0  0  0  0  0  0  0  0  0  0  0
   -4.0749    0.0151   -0.1164 C   0  0  0  0  0  0  0  0  0  0  0  0
    0.3057    1.0404   -0.8633 C   0  0  0  0  0  0  0  0  0  0  0  0
   -0.9614    0.2994   -1.2332 C   0  0  0  0  0  0  0  0  0  0  0  0
    2.5257    0.4400   -0.2577 C   0  0  0  0  0  0  0  0  0  0  0  0
   -3.8978   -1.1929    0.5129 C   0  0  0  0  0  0  0  0  0  0  0  0
    3.3872   -0.6078    0.0666 C   0  0  0  0  0  0  0  0  0  0  0  0
    2.7630    1.7191    0.2454 C   0  0  0  0  0  0  0  0  0  0  0  0
    4.4861   -0.3766    0.8938 C   0  0  0  0  0  0  0  0  0  0  0  0
   -4.8032   -1.1643    1.5905 C   0  0  0  0  0  0  0  0  0  0  0  0
    3.8620    1.9505    1.0728 C   0  0  0  0  0  0  0  0  0  0  0  0
    4.7236    0.9026    1.3969 C   0  0  0  0  0  0  0  0  0  0  0  0
    4.0933   -2.8763   -0.0383 C   0  0  0  0  0  0  0  0  0  0  0  0
   -3.3915   -0.1235   -2.1335 H   0  0  0  0  0  0  0  0  0  0  0  0
   -4.0011    1.4784   -1.6885 H   0  0  0  0  0  0  0  0  0  0  0  0
   -1.9814    2.0288   -0.6850 H   0  0  0  0  0  0  0  0  0  0  0  0
    0.3797    1.9367   -1.4898 H   0  0  0  0  0  0  0  0  0  0  0  0
    0.1932    1.3269    0.1910 H   0  0  0  0  0  0  0  0  0  0  0  0
   -3.2141   -1.9811    0.2333 H   0  0  0  0  0  0  0  0  0  0  0  0
   -5.4244    1.5882    0.4222 H   0  0  0  0  0  0  0  0  0  0  0  0
    2.1338    2.5682   -0.0047 H   0  0  0  0  0  0  0  0  0  0  0  0
    5.1970   -1.1412    1.1874 H   0  0  0  0  0  0  0  0  0  0  0  0
   -4.9818   -1.9242    2.3376 H   0  0  0  0  0  0  0  0  0  0  0  0
    4.0510    2.9477    1.4595 H   0  0  0  0  0  0  0  0  0  0  0  0
    5.5799    1.0842    2.0400 H   0  0  0  0  0  0  0  0  0  0  0  0
    3.7644   -3.8069   -0.5125 H   0  0  0  0  0  0  0  0  0  0  0  0
    4.0823   -3.0496    1.0431 H   0  0  0  0  0  0  0  0  0  0  0  0
    5.0992   -2.6651   -0.4169 H   0  0  0  0  0  0  0  0  0  0  0  0
  1  9  1  0  0  0  0
  1 11  1  0  0  0  0
  2 13  1  0  0  0  0
  2 19  1  0  0  0  0
  3 10  2  0  0  0  0
  4  7  1  0  0  0  0
  4 10  1  0  0  0  0
  4 22  1  0  0  0  0
  5  6  1  0  0  0  0
  5  8  1  0  0  0  0
  5 26  1  0  0  0  0
  6 16  2  0  0  0  0
  7  8  1  0  0  0  0
  7 20  1  0  0  0  0
  7 21  1  0  0  0  0
  8 12  2  0  0  0  0
  9 10  1  0  0  0  0
  9 23  1  0  0  0  0
  9 24  1  0  0  0  0
 11 13  1  0  0  0  0
 11 14  2  0  0  0  0
 12 16  1  0  0  0  0
 12 25  1  0  0  0  0
 13 15  2  0  0  0  0
 14 17  1  0  0  0  0
 14 27  1  0  0  0  0
 15 18  1  0  0  0  0
 15 28  1  0  0  0  0
 16 29  1  0  0  0  0
 17 18  2  0  0  0  0
 17 30  1  0  0  0  0
 18 31  1  0  0  0  0
 19 32  1  0  0  0  0
 19 33  1  0  0  0  0
 19 34  1  0  0  0  0
M  END
> <PUBCHEM_COMPOUND_CID>
47205081

> <PUBCHEM_CONFORMER_RMSD>
1

> <PUBCHEM_CONFORMER_DIVERSEORDER>
3
75
36
43
106
8
80
61
31
42
9
5
114
62
95
13
17
41
103
44
113
119
118
67
126
10
11
4
12
83
121
117
6
64
74
122
112
115
22
60
93
16
25
79
56
123
124
39
78
2
65
37
125
45
111
33
7
99
46
98
84
108
87
24
32
35
68
91
40
97
55
51
52
109
116
88
96
1
86
53
49
85
26
20
81
90
69
127
72
128
23
18
21
38
107
77
120
58
105
71
34
101
50
54
19
48
30
82
104
28
27
57
89
59
110
29
63
100
47
15
66
76
94
70
102
73
14
92

> <PUBCHEM_MMFF94_PARTIAL_CHARGES>
27
1 -0.36
10 0.57
11 0.08
12 -0.15
13 0.08
14 -0.15
15 -0.15
16 0.14
17 -0.15
18 -0.15
19 0.28
2 -0.36
22 0.37
25 0.15
26 0.27
27 0.15
28 0.15
29 0.15
3 -0.57
30 0.15
31 0.15
4 -0.73
5 0.3
6 -0.71
7 0.48
8 -0.33
9 0.34

> <PUBCHEM_EFFECTIVE_ROTOR_COUNT>
7

> <PUBCHEM_PHARMACOPHORE_FEATURES>
8
1 1 acceptor
1 2 acceptor
1 3 acceptor
1 4 donor
1 5 donor
1 6 acceptor
5 5 6 8 12 16 rings
6 11 13 14 15 17 18 rings

> <PUBCHEM_HEAVY_ATOM_COUNT>
19

> <PUBCHEM_ATOM_DEF_STEREO_COUNT>
0

> <PUBCHEM_ATOM_UDEF_STEREO_COUNT>
0

> <PUBCHEM_BOND_DEF_STEREO_COUNT>
0

> <PUBCHEM_BOND_UDEF_STEREO_COUNT>
0

> <PUBCHEM_ISOTOPIC_ATOM_COUNT>
0

> <PUBCHEM_COMPONENT_COUNT>
1

> <PUBCHEM_CACTVS_TAUTO_COUNT>
4

> <PUBCHEM_CONFORMER_ID>
02D04AD900000003

> <PUBCHEM_MMFF94_ENERGY>
47.5539

> <PUBCHEM_FEATURE_SELFOVERLAP>
40.606

> <PUBCHEM_SHAPE_FINGERPRINT>
10670039 82 14418396785477901488
10912923 1 17240495688378141613
11046707 91 16056606447713285525
11089746 13 6771866238595275036
11128504 68 12751231510843367903
11370993 144 18409728504192198841
11552529 35 17824549569500107135
11595378 159 17023179452747126873
11796584 16 16627175067864929618
12596602 18 17531247214707109547
12769317 202 10447341234713770782
12892183 10 18408039606839641149
13583140 156 18339374023290020245
13675066 3 18343028804114233269
13911882 115 18201715142002119002
1420 369 16773798065474385809
14251732 14 16558449968194052798
14251757 5 13038032479082890305
14252887 29 18343026601196793716
15188451 53 17631741469795379347
15238133 3 15647059274399469194
15342816 4 15841552972504542380
15475509 84 17605275275743246912
1601671 61 15068620466006728136
17349148 13 15195569013260627529
1813 80 16200146573964713639
18915474 69 13758355574425580016
193927 3 16916774181126219681
200 152 12679189331290084700
20403669 9 17346312674988459651
21065199 12 18411986870531130669
21065201 7 17488755608498773428
212916 134 14707216529979418223
21315763 191 13902189296763636377
21521721 280 18335421219908298696
23402539 116 13038919861948199412
23559900 14 17989204892775050974
239999 70 17775286049991267904
268830 7 16950577557641309584
2748736 6 15937519542105942473
3004659 81 12751247994806686616
312425 54 18411970374305506923
316301 35 17917717958732399282
341906 21 14634875244745966463
351380 3 15554446288931546985
38570 142 17825657856105141616
4259306 186 14117806803682345265
5104073 3 18267031729023948328
5352402 22 18343581841251298011
5924683 9 18263365790128011407
602551 16 17131837547080085144
633830 44 16515399668503193885
8863177 126 18343300401051810850
960060 61 12535627167561532391

> <PUBCHEM_SHAPE_MULTIPOLES>
358.46
13.32
2.03
1.55
9.08
1.14
0.14
2.22
7.11
-2.82
0.07
1.11
-0.09
1.79

> <PUBCHEM_SHAPE_SELFOVERLAP>
752.742

> <PUBCHEM_SHAPE_VOLUME>
202.1

> <PUBCHEM_COORDINATE_TYPE>
2
5
10

$$$$

