47205752
  -OEChem-06241223003D

 35 36  0     0  0  0  0  0  0999 V2000
    2.2813    0.6417   -0.1762 S   0  0  0  0  0  0  0  0  0  0  0  0
   -2.1206    1.7324   -0.0643 O   0  0  0  0  0  0  0  0  0  0  0  0
    0.3513   -2.7139    0.0136 O   0  0  0  0  0  0  0  0  0  0  0  0
   -0.4159   -0.4913   -0.0084 N   0  0  0  0  0  0  0  0  0  0  0  0
   -3.9966    0.3875    0.0561 N   0  0  0  0  0  0  0  0  0  0  0  0
    3.9708    0.3719   -0.2465 C   0  0  0  0  0  0  0  0  0  0  0  0
    4.8895    1.5279   -0.3309 C   0  0  0  0  0  0  0  0  0  0  0  0
    1.9614   -1.0389   -0.1028 C   0  0  0  0  0  0  0  0  0  0  0  0
    4.2820   -0.9697   -0.2144 C   0  0  0  0  0  0  0  0  0  0  0  0
    3.1177   -1.7870   -0.1312 C   0  0  0  0  0  0  0  0  0  0  0  0
   -1.8031   -0.6291    0.0391 C   0  0  0  0  0  0  0  0  0  0  0  0
    0.5523   -1.5045   -0.0184 C   0  0  0  0  0  0  0  0  0  0  0  0
    5.5724    1.8415    1.0033 C   0  0  0  0  0  0  0  0  0  0  0  0
   -2.6478    0.4689    0.0112 C   0  0  0  0  0  0  0  0  0  0  0  0
   -2.3797   -1.8920    0.1181 C   0  0  0  0  0  0  0  0  0  0  0  0
   -3.0474    2.8111   -0.0889 C   0  0  0  0  0  0  0  0  0  0  0  0
   -3.7638   -2.0164    0.1661 C   0  0  0  0  0  0  0  0  0  0  0  0
   -4.5208   -0.8563    0.1325 C   0  0  0  0  0  0  0  0  0  0  0  0
   -2.2833    4.1161   -0.1581 C   0  0  0  0  0  0  0  0  0  0  0  0
    5.6643    1.3174   -1.0789 H   0  0  0  0  0  0  0  0  0  0  0  0
    4.3694    2.4280   -0.6810 H   0  0  0  0  0  0  0  0  0  0  0  0
    5.2946   -1.3512   -0.2488 H   0  0  0  0  0  0  0  0  0  0  0  0
    3.1366   -2.8688   -0.0941 H   0  0  0  0  0  0  0  0  0  0  0  0
   -0.0799    0.4684   -0.0544 H   0  0  0  0  0  0  0  0  0  0  0  0
    6.1609    0.9882    1.3568 H   0  0  0  0  0  0  0  0  0  0  0  0
    6.2461    2.6968    0.8908 H   0  0  0  0  0  0  0  0  0  0  0  0
    4.8344    2.0858    1.7747 H   0  0  0  0  0  0  0  0  0  0  0  0
   -1.8227   -2.8176    0.1517 H   0  0  0  0  0  0  0  0  0  0  0  0
   -3.6592    2.8067    0.8213 H   0  0  0  0  0  0  0  0  0  0  0  0
   -3.6972    2.7314   -0.9687 H   0  0  0  0  0  0  0  0  0  0  0  0
   -4.2364   -2.9900    0.2290 H   0  0  0  0  0  0  0  0  0  0  0  0
   -5.6043   -0.8989    0.1677 H   0  0  0  0  0  0  0  0  0  0  0  0
   -2.9669    4.9695   -0.1787 H   0  0  0  0  0  0  0  0  0  0  0  0
   -1.6528    4.1467   -1.0529 H   0  0  0  0  0  0  0  0  0  0  0  0
   -1.6161    4.2185    0.7042 H   0  0  0  0  0  0  0  0  0  0  0  0
  1  6  1  0  0  0  0
  1  8  1  0  0  0  0
  2 14  1  0  0  0  0
  2 16  1  0  0  0  0
  3 12  2  0  0  0  0
  4 11  1  0  0  0  0
  4 12  1  0  0  0  0
  4 24  1  0  0  0  0
  5 14  1  0  0  0  0
  5 18  2  0  0  0  0
  6  7  1  0  0  0  0
  6  9  2  0  0  0  0
  7 13  1  0  0  0  0
  7 20  1  0  0  0  0
  7 21  1  0  0  0  0
  8 10  2  0  0  0  0
  8 12  1  0  0  0  0
  9 10  1  0  0  0  0
  9 22  1  0  0  0  0
 10 23  1  0  0  0  0
 11 14  2  0  0  0  0
 11 15  1  0  0  0  0
 13 25  1  0  0  0  0
 13 26  1  0  0  0  0
 13 27  1  0  0  0  0
 15 17  2  0  0  0  0
 15 28  1  0  0  0  0
 16 19  1  0  0  0  0
 16 29  1  0  0  0  0
 16 30  1  0  0  0  0
 17 18  1  0  0  0  0
 17 31  1  0  0  0  0
 18 32  1  0  0  0  0
 19 33  1  0  0  0  0
 19 34  1  0  0  0  0
 19 35  1  0  0  0  0
M  END
> <PUBCHEM_COMPOUND_CID>
47205752

> <PUBCHEM_CONFORMER_RMSD>
0.8

> <PUBCHEM_CONFORMER_DIVERSEORDER>
1
41
37
25
23
27
38
17
10
13
40
21
14
36
26
32
4
22
24
30
31
11
33
39
8
20
29
5
3
7
18
35
16
28
2
6
12
9
19
15
34

> <PUBCHEM_MMFF94_PARTIAL_CHARGES>
23
1 -0.08
10 -0.15
11 0.12
12 0.71
14 0.39
15 -0.15
16 0.28
17 -0.15
18 0.16
2 -0.36
22 0.15
23 0.15
24 0.37
28 0.15
3 -0.57
31 0.15
32 0.15
4 -0.55
5 -0.62
6 -0.14
7 0.18
8 -0.05
9 -0.15

> <PUBCHEM_EFFECTIVE_ROTOR_COUNT>
6

> <PUBCHEM_PHARMACOPHORE_FEATURES>
7
1 13 hydrophobe
1 2 acceptor
1 3 acceptor
1 4 donor
1 5 acceptor
5 1 6 8 9 10 rings
6 5 11 14 15 17 18 rings

> <PUBCHEM_HEAVY_ATOM_COUNT>
19

> <PUBCHEM_ATOM_DEF_STEREO_COUNT>
0

> <PUBCHEM_ATOM_UDEF_STEREO_COUNT>
0

> <PUBCHEM_BOND_DEF_STEREO_COUNT>
0

> <PUBCHEM_BOND_UDEF_STEREO_COUNT>
0

> <PUBCHEM_ISOTOPIC_ATOM_COUNT>
0

> <PUBCHEM_COMPONENT_COUNT>
1

> <PUBCHEM_CACTVS_TAUTO_COUNT>
5

> <PUBCHEM_CONFORMER_ID>
02D04D7800000001

> <PUBCHEM_MMFF94_ENERGY>
41.9573

> <PUBCHEM_FEATURE_SELFOVERLAP>
35.568

> <PUBCHEM_SHAPE_FINGERPRINT>
10498660 4 18412828009837544557
10608611 8 18337953505637579799
10646746 165 18339077194037029350
10670039 82 18271227362717474276
11595378 159 18059031518007676888
12107183 9 17694792113533968442
12173636 292 18411138060518530567
12596602 18 17131558215550855960
12916748 109 18411413982408326242
13081056 2 18335698343249591198
13140716 1 17837211476822527560
13402501 40 18116438042428330448
138480 1 15601455212660980597
14251764 38 18342173375984667464
14739800 52 18267604446112685776
14790565 3 17759235585482219345
15196674 1 18410572903099267446
15961568 22 18340764828612122060
17492 89 18339921614251194698
17834072 32 18050565441577277717
17844677 252 18337664313026767790
18186145 218 18115012104627246134
19930381 70 17979073786753163777
20510252 161 18408318895656678491
20645477 56 18195234732152786077
21065198 57 18267021833282212734
21315764 268 18337118865392482792
21652331 79 18410009914216931310
221357 26 18333447647105162652
22182937 141 18192144017768068457
23352939 185 18186798055026600361
23402539 116 18265056842536170174
23557571 272 18335127722072953972
23559900 14 18045784748003524782
245318 6 16840490987952418452
4214541 1 18339359776867375902
474 4 17703503278004434918
5104073 3 18341047501335679650
5281201 14 18113889511913702742
77779 3 18410289229036452462
9709674 26 18264201585862307807
9981440 41 18272933816878466699

> <PUBCHEM_SHAPE_MULTIPOLES>
373.16
11.05
3.65
0.68
8.06
3.49
0.05
3.19
1
-2.83
-0.05
0.39
0.11
0.74

> <PUBCHEM_SHAPE_SELFOVERLAP>
768.84

> <PUBCHEM_SHAPE_VOLUME>
215.8

> <PUBCHEM_COORDINATE_TYPE>
2
5
10

$$$$

