11063
  -OEChem-06261205173D

 30 32  0     0  0  0  0  0  0999 V2000
   -0.1954   -0.9694   -0.0038 O   0  0  0  0  0  0  0  0  0  0  0  0
    1.3638    2.8996    0.0007 O   0  0  0  0  0  0  0  0  0  0  0  0
   -1.2558    2.5556   -0.0446 O   0  0  0  0  0  0  0  0  0  0  0  0
    3.7707    1.9211    0.0228 O   0  0  0  0  0  0  0  0  0  0  0  0
    4.1539   -2.7980   -0.0110 O   0  0  0  0  0  0  0  0  0  0  0  0
    1.7722    0.5301    0.0031 C   0  0  0  0  0  0  0  0  0  0  0  0
    1.1888   -0.8227   -0.0019 C   0  0  0  0  0  0  0  0  0  0  0  0
   -1.0149    0.1500    0.0003 C   0  0  0  0  0  0  0  0  0  0  0  0
    0.9284    1.5888   -0.0009 C   0  0  0  0  0  0  0  0  0  0  0  0
   -0.5111    1.3978   -0.0093 C   0  0  0  0  0  0  0  0  0  0  0  0
   -2.4473   -0.1785    0.0033 C   0  0  0  0  0  0  0  0  0  0  0  0
    3.2368    0.6484    0.0109 C   0  0  0  0  0  0  0  0  0  0  0  0
    1.9613   -1.9172   -0.0054 C   0  0  0  0  0  0  0  0  0  0  0  0
    4.0240   -0.4380    0.0072 C   0  0  0  0  0  0  0  0  0  0  0  0
    3.4395   -1.8014   -0.0039 C   0  0  0  0  0  0  0  0  0  0  0  0
   -3.1316   -0.3444   -1.2033 C   0  0  0  0  0  0  0  0  0  0  0  0
   -3.1309   -0.3261    1.2126 C   0  0  0  0  0  0  0  0  0  0  0  0
   -4.4912   -0.6558   -1.2007 C   0  0  0  0  0  0  0  0  0  0  0  0
   -4.4906   -0.6376    1.2152 C   0  0  0  0  0  0  0  0  0  0  0  0
   -5.1707   -0.8025    0.0085 C   0  0  0  0  0  0  0  0  0  0  0  0
    1.5363   -2.9149   -0.0099 H   0  0  0  0  0  0  0  0  0  0  0  0
    5.1054   -0.3553    0.0125 H   0  0  0  0  0  0  0  0  0  0  0  0
   -2.6159   -0.2338   -2.1543 H   0  0  0  0  0  0  0  0  0  0  0  0
   -2.6148   -0.2012    2.1616 H   0  0  0  0  0  0  0  0  0  0  0  0
   -5.0208   -0.7842   -2.1401 H   0  0  0  0  0  0  0  0  0  0  0  0
   -5.0199   -0.7520    2.1567 H   0  0  0  0  0  0  0  0  0  0  0  0
   -6.2293   -1.0451    0.0106 H   0  0  0  0  0  0  0  0  0  0  0  0
    0.7131    3.4420    0.4772 H   0  0  0  0  0  0  0  0  0  0  0  0
   -0.7680    3.2251   -0.5531 H   0  0  0  0  0  0  0  0  0  0  0  0
    3.0986    2.5655    0.2906 H   0  0  0  0  0  0  0  0  0  0  0  0
  1  7  1  0  0  0  0
  1  8  1  0  0  0  0
  2  9  1  0  0  0  0
  2 28  1  0  0  0  0
  3 10  1  0  0  0  0
  3 29  1  0  0  0  0
  4 12  1  0  0  0  0
  4 30  1  0  0  0  0
  5 15  2  0  0  0  0
  6  7  1  0  0  0  0
  6  9  2  0  0  0  0
  6 12  1  0  0  0  0
  7 13  2  0  0  0  0
  8 10  2  0  0  0  0
  8 11  1  0  0  0  0
  9 10  1  0  0  0  0
 11 16  2  0  0  0  0
 11 17  1  0  0  0  0
 12 14  2  0  0  0  0
 13 15  1  0  0  0  0
 13 21  1  0  0  0  0
 14 15  1  0  0  0  0
 14 22  1  0  0  0  0
 16 18  1  0  0  0  0
 16 23  1  0  0  0  0
 17 19  2  0  0  0  0
 17 24  1  0  0  0  0
 18 20  2  0  0  0  0
 18 25  1  0  0  0  0
 19 20  1  0  0  0  0
 19 26  1  0  0  0  0
 20 27  1  0  0  0  0
M  END
> <PUBCHEM_COMPOUND_CID>
11063

> <PUBCHEM_CONFORMER_RMSD>
0.6

> <PUBCHEM_CONFORMER_DIVERSEORDER>
1
2

> <PUBCHEM_MMFF94_PARTIAL_CHARGES>
29
1 -0.15
10 0.08
11 0.03
12 0.08
13 -0.14
14 -0.14
15 0.54
16 -0.15
17 -0.15
18 -0.15
19 -0.15
2 -0.53
20 -0.15
21 0.15
22 0.15
23 0.15
24 0.15
25 0.15
26 0.15
27 0.15
28 0.45
29 0.45
3 -0.53
30 0.45
4 -0.53
5 -0.57
7 0.08
8 0.05
9 0.08

> <PUBCHEM_EFFECTIVE_ROTOR_COUNT>
1

> <PUBCHEM_PHARMACOPHORE_FEATURES>
8
1 1 acceptor
1 2 donor
1 3 donor
1 4 donor
1 5 acceptor
6 1 6 7 8 9 10 rings
6 11 16 17 18 19 20 rings
6 6 7 12 13 14 15 rings

> <PUBCHEM_HEAVY_ATOM_COUNT>
20

> <PUBCHEM_ATOM_DEF_STEREO_COUNT>
0

> <PUBCHEM_ATOM_UDEF_STEREO_COUNT>
0

> <PUBCHEM_BOND_DEF_STEREO_COUNT>
0

> <PUBCHEM_BOND_UDEF_STEREO_COUNT>
0

> <PUBCHEM_ISOTOPIC_ATOM_COUNT>
0

> <PUBCHEM_COMPONENT_COUNT>
1

> <PUBCHEM_CACTVS_TAUTO_COUNT>
24

> <PUBCHEM_CONFORMER_ID>
00002B3700000001

> <PUBCHEM_MMFF94_ENERGY>
67.9533

> <PUBCHEM_FEATURE_SELFOVERLAP>
40.643

> <PUBCHEM_SHAPE_FINGERPRINT>
10411042 1 18266458892219516678
10967382 1 18338798918821516492
11471102 20 18411702045463890396
11796584 16 16773806921370117554
12032990 46 18340484568714964546
12107183 9 17973149919071632433
12236239 1 17749385937107856795
12363563 72 18341044224186032650
12553582 1 18408322198386464622
12670546 56 17603305934221465985
13134695 92 18409170991314310349
13140716 1 17976824190373499464
13544653 18 18341610442762235319
13760787 5 18407760330917659271
13862211 1 18410578396711007858
14386348 63 17917710176208999251
14576447 43 18043825190591175695
14790565 3 17835512731126557476
15196674 1 18410856602594945157
15375462 189 18113898247423339537
16945 1 18410856512627550220
17357779 13 18272944833769975157
1813 80 18188758552324254351
18222031 100 18259991495456524327
200 152 18333455348240032527
20281475 54 18260271836820149647
20645477 70 18342183249644696735
21065201 7 16630813209690620435
21267235 1 18409441514367061134
21641784 216 18058711607553615036
221357 26 18342471352526033501
221490 88 18340768247167965260
22182313 1 18269294463697956684
2255824 54 18262797337603838212
23175994 123 18202560683845163957
2334 1 17618222806569848160
23402539 116 18336550533064077238
23559900 14 17632858641885908994
25147074 1 18265036089623454208
2748010 2 18266468779028289564
2871803 45 18272934959313113554
312423 11 18337941402656908628
33824 294 18411421666178496552
34797466 226 16486961878477534095
46194498 28 17631739245044466701
474 4 17972886860345552616
5104073 3 18337673121556143945
5281201 14 17918275354917930341
573450 72 17095240320135793531
602551 16 15068910698458393071
77492 1 17676764276308823109
9709674 26 18342455954224141067

> <PUBCHEM_SHAPE_MULTIPOLES>
382.24
9.55
2.44
0.91
5.12
0.77
-0.01
-4.29
-0.04
-2.98
0.02
1.2
-0.15
0.01

> <PUBCHEM_SHAPE_SELFOVERLAP>
850.709

> <PUBCHEM_SHAPE_VOLUME>
201.5

> <PUBCHEM_COORDINATE_TYPE>
2
5
10

$$$$

