9058
  -OEChem-06261203223D

 40 44  0     0  0  0  0  0  0999 V2000
   -2.8557   -0.2803    0.0336 C   0  0  0  0  0  0  0  0  0  0  0  0
   -3.5058   -1.6527    0.0238 C   0  0  0  0  0  0  0  0  0  0  0  0
   -4.9987   -1.6526    0.3479 C   0  0  0  0  0  0  0  0  0  0  0  0
   -3.6652    0.8762    0.0019 C   0  0  0  0  0  0  0  0  0  0  0  0
   -5.7116   -0.5541   -0.4219 C   0  0  0  0  0  0  0  0  0  0  0  0
   -5.1728    0.8057    0.0054 C   0  0  0  0  0  0  0  0  0  0  0  0
   -1.4309   -0.1539    0.0199 C   0  0  0  0  0  0  0  0  0  0  0  0
   -0.8549    1.1330    0.0250 C   0  0  0  0  0  0  0  0  0  0  0  0
   -3.0655    2.1387    0.0170 C   0  0  0  0  0  0  0  0  0  0  0  0
   -0.5402   -1.2496   -0.0038 C   0  0  0  0  0  0  0  0  0  0  0  0
    1.4428    0.1876    0.0053 C   0  0  0  0  0  0  0  0  0  0  0  0
    0.8600   -1.0984   -0.0096 C   0  0  0  0  0  0  0  0  0  0  0  0
   -1.6802    2.2643    0.0300 C   0  0  0  0  0  0  0  0  0  0  0  0
    0.5462    1.2829    0.0213 C   0  0  0  0  0  0  0  0  0  0  0  0
    2.8787    0.3124    0.0006 C   0  0  0  0  0  0  0  0  0  0  0  0
    1.6773   -2.2326   -0.0302 C   0  0  0  0  0  0  0  0  0  0  0  0
    3.6753   -0.8619   -0.0196 C   0  0  0  0  0  0  0  0  0  0  0  0
    3.0633   -2.1168   -0.0350 C   0  0  0  0  0  0  0  0  0  0  0  0
    3.5716    1.5492    0.0148 C   0  0  0  0  0  0  0  0  0  0  0  0
    5.0781   -0.7761   -0.0248 C   0  0  0  0  0  0  0  0  0  0  0  0
    4.9674    1.6211    0.0091 C   0  0  0  0  0  0  0  0  0  0  0  0
    5.7209    0.4578   -0.0106 C   0  0  0  0  0  0  0  0  0  0  0  0
   -3.3571   -2.0889   -0.9721 H   0  0  0  0  0  0  0  0  0  0  0  0
   -3.0164   -2.3046    0.7565 H   0  0  0  0  0  0  0  0  0  0  0  0
   -5.4284   -2.6300    0.1014 H   0  0  0  0  0  0  0  0  0  0  0  0
   -5.1454   -1.5011    1.4250 H   0  0  0  0  0  0  0  0  0  0  0  0
   -5.5223    1.0348    1.0201 H   0  0  0  0  0  0  0  0  0  0  0  0
   -5.5835    1.5699   -0.6655 H   0  0  0  0  0  0  0  0  0  0  0  0
   -6.7904   -0.5990   -0.2361 H   0  0  0  0  0  0  0  0  0  0  0  0
   -5.5623   -0.6987   -1.4994 H   0  0  0  0  0  0  0  0  0  0  0  0
   -3.6775    3.0376    0.0167 H   0  0  0  0  0  0  0  0  0  0  0  0
   -0.9408   -2.2630   -0.0237 H   0  0  0  0  0  0  0  0  0  0  0  0
   -1.2505    3.2643    0.0374 H   0  0  0  0  0  0  0  0  0  0  0  0
    0.9395    2.2984    0.0285 H   0  0  0  0  0  0  0  0  0  0  0  0
    1.2419   -3.2303   -0.0422 H   0  0  0  0  0  0  0  0  0  0  0  0
    3.6602   -3.0269   -0.0509 H   0  0  0  0  0  0  0  0  0  0  0  0
    3.0347    2.4942    0.0308 H   0  0  0  0  0  0  0  0  0  0  0  0
    5.6874   -1.6780   -0.0404 H   0  0  0  0  0  0  0  0  0  0  0  0
    5.4600    2.5891    0.0205 H   0  0  0  0  0  0  0  0  0  0  0  0
    6.8054    0.5082   -0.0149 H   0  0  0  0  0  0  0  0  0  0  0  0
  1  2  1  0  0  0  0
  1  4  2  0  0  0  0
  1  7  1  0  0  0  0
  2  3  1  0  0  0  0
  2 23  1  0  0  0  0
  2 24  1  0  0  0  0
  3  5  1  0  0  0  0
  3 25  1  0  0  0  0
  3 26  1  0  0  0  0
  4  6  1  0  0  0  0
  4  9  1  0  0  0  0
  5  6  1  0  0  0  0
  5 29  1  0  0  0  0
  5 30  1  0  0  0  0
  6 27  1  0  0  0  0
  6 28  1  0  0  0  0
  7  8  1  0  0  0  0
  7 10  2  0  0  0  0
  8 13  1  0  0  0  0
  8 14  2  0  0  0  0
  9 13  2  0  0  0  0
  9 31  1  0  0  0  0
 10 12  1  0  0  0  0
 10 32  1  0  0  0  0
 11 12  2  0  0  0  0
 11 14  1  0  0  0  0
 11 15  1  0  0  0  0
 12 16  1  0  0  0  0
 13 33  1  0  0  0  0
 14 34  1  0  0  0  0
 15 17  1  0  0  0  0
 15 19  2  0  0  0  0
 16 18  2  0  0  0  0
 16 35  1  0  0  0  0
 17 18  1  0  0  0  0
 17 20  2  0  0  0  0
 18 36  1  0  0  0  0
 19 21  1  0  0  0  0
 19 37  1  0  0  0  0
 20 22  1  0  0  0  0
 20 38  1  0  0  0  0
 21 22  2  0  0  0  0
 21 39  1  0  0  0  0
 22 40  1  0  0  0  0
M  END
> <PUBCHEM_COMPOUND_CID>
9058

> <PUBCHEM_CONFORMER_RMSD>
0.6

> <PUBCHEM_CONFORMER_DIVERSEORDER>
1

> <PUBCHEM_MMFF94_PARTIAL_CHARGES>
24
1 -0.14
10 -0.15
13 -0.15
14 -0.15
16 -0.15
18 -0.15
19 -0.15
2 0.14
20 -0.15
21 -0.15
22 -0.15
31 0.15
32 0.15
33 0.15
34 0.15
35 0.15
36 0.15
37 0.15
38 0.15
39 0.15
4 -0.14
40 0.15
6 0.14
9 -0.15

> <PUBCHEM_EFFECTIVE_ROTOR_COUNT>
0.8

> <PUBCHEM_PHARMACOPHORE_FEATURES>
5
6 1 2 3 4 5 6 rings
6 1 4 7 8 9 13 rings
6 11 12 15 16 17 18 rings
6 15 17 19 20 21 22 rings
6 7 8 10 11 12 14 rings

> <PUBCHEM_HEAVY_ATOM_COUNT>
22

> <PUBCHEM_ATOM_DEF_STEREO_COUNT>
0

> <PUBCHEM_ATOM_UDEF_STEREO_COUNT>
0

> <PUBCHEM_BOND_DEF_STEREO_COUNT>
0

> <PUBCHEM_BOND_UDEF_STEREO_COUNT>
0

> <PUBCHEM_ISOTOPIC_ATOM_COUNT>
0

> <PUBCHEM_COMPONENT_COUNT>
1

> <PUBCHEM_CACTVS_TAUTO_COUNT>
1

> <PUBCHEM_CONFORMER_ID>
0000236200000001

> <PUBCHEM_MMFF94_ENERGY>
70.4393

> <PUBCHEM_FEATURE_SELFOVERLAP>
25.463

> <PUBCHEM_SHAPE_FINGERPRINT>
10 15 18337965485361880032
10090160 65 18273217473650875774
10411042 1 17113537014272664578
10595046 47 18410293605391407457
10616163 171 18408884053107518047
10835480 77 18340778099971402173
10906281 52 18270379642739745219
11135609 12 17845075287364492027
11488393 25 17315053675180350486
11578080 2 17130163119667331999
11963148 33 18339931402545251563
12107183 9 17690280834019431728
12236239 1 18410575093253020036
12403259 415 18186809054248259456
12788726 201 17168700981105058953
13140716 1 17978227153919100466
13224815 77 18410574010926529674
13402501 40 18410573959392223051
13533116 47 17274833501423633042
13862211 1 18410015411854418807
14341114 176 18411694409033026647
14528608 73 18409448068391787190
14787075 74 18411138013194463467
14790565 3 18409443652854560076
15196674 1 18410574006631562378
15536298 74 18335982064488715006
15788980 27 16487256577515799143
15927050 60 17397826778592502916
15961568 22 18060133215953603268
17349148 13 17917989473199421300
17492 89 18265332983243042390
17844677 252 18335412525876152478
1813 80 17275381023395376605
18681886 176 18409451371854841928
19591789 44 18264490589699747624
200 152 18187086161158411377
20645477 70 18261391200013725318
21236236 1 18335701667844545561
21267235 1 18410003351596807678
21673915 165 18411418418676798967
221490 88 18338229474814597402
22393880 68 18267862968377945190
23402539 116 18412549786277619087
23559900 14 18410301276615033161
239999 70 18260260872290954262
245318 6 17127874774468341428
2871803 45 18413109471855519611
3004659 81 18343301487872890386
335352 9 18410855481618835964
34797466 226 17531239531121321772
34934 24 18411422825893688247
350125 39 18410293601629501920
3545911 37 18412262852212826269
4073 2 18131345289264125883
4214541 1 18410855507541899433
4325135 7 18409449180514029831
4340502 62 17060618901694094034
474 4 17917986162238585092
474229 33 18410012117588070582
5104073 3 18338234967686983514
5283173 99 18059022790803124861
5486654 2 18338794524780017414
7495541 125 17821734909736857672
77779 3 18410011082458500840
9709674 26 18337946904225704366

> <PUBCHEM_SHAPE_MULTIPOLES>
452.75
12.73
2.38
0.63
0.25
0
0
-0.11
0.24
0.14
-0.04
0.07
-0.01
0.09

> <PUBCHEM_SHAPE_SELFOVERLAP>
1035.207

> <PUBCHEM_SHAPE_VOLUME>
216.2

> <PUBCHEM_COORDINATE_TYPE>
2
5
10

$$$$

