12804
  -OEChem-06261207233D

 18 19  0     0  0  0  0  0  0999 V2000
   -1.4511   -0.8102   -0.0003 O   0  0  0  0  0  0  0  0  0  0  0  0
   -1.3843    1.4258   -0.0002 N   0  0  0  0  0  0  0  0  0  0  0  0
   -2.7113    1.0382    0.0001 N   0  0  0  0  0  0  0  0  0  0  0  0
    3.5003   -0.2926    0.0002 N   0  0  0  0  0  0  0  0  0  0  0  0
   -3.7317   -1.1488    0.0005 N   0  0  0  0  0  0  0  0  0  0  0  0
    0.7340    0.1090   -0.0001 C   0  0  0  0  0  0  0  0  0  0  0  0
   -0.6932    0.3161   -0.0002 C   0  0  0  0  0  0  0  0  0  0  0  0
    1.2520   -1.1815   -0.0001 C   0  0  0  0  0  0  0  0  0  0  0  0
    1.5975    1.1988    0.0001 C   0  0  0  0  0  0  0  0  0  0  0  0
   -2.7023   -0.2744   -0.0002 C   0  0  0  0  0  0  0  0  0  0  0  0
    2.6299   -1.3271   -0.0001 C   0  0  0  0  0  0  0  0  0  0  0  0
    2.9600    0.9467    0.0002 C   0  0  0  0  0  0  0  0  0  0  0  0
    0.6286   -2.0694   -0.0002 H   0  0  0  0  0  0  0  0  0  0  0  0
    1.2371    2.2224    0.0001 H   0  0  0  0  0  0  0  0  0  0  0  0
    3.0846   -2.3124   -0.0001 H   0  0  0  0  0  0  0  0  0  0  0  0
    3.6758    1.7621    0.0004 H   0  0  0  0  0  0  0  0  0  0  0  0
   -3.5822   -2.1525    0.0004 H   0  0  0  0  0  0  0  0  0  0  0  0
   -4.6980   -0.8393    0.0009 H   0  0  0  0  0  0  0  0  0  0  0  0
  1  7  1  0  0  0  0
  1 10  1  0  0  0  0
  2  3  1  0  0  0  0
  2  7  2  0  0  0  0
  3 10  2  0  0  0  0
  4 11  2  0  0  0  0
  4 12  1  0  0  0  0
  5 10  1  0  0  0  0
  5 17  1  0  0  0  0
  5 18  1  0  0  0  0
  6  7  1  0  0  0  0
  6  8  2  0  0  0  0
  6  9  1  0  0  0  0
  8 11  1  0  0  0  0
  8 13  1  0  0  0  0
  9 12  2  0  0  0  0
  9 14  1  0  0  0  0
 11 15  1  0  0  0  0
 12 16  1  0  0  0  0
M  END
> <PUBCHEM_COMPOUND_CID>
12804

> <PUBCHEM_CONFORMER_RMSD>
0.4

> <PUBCHEM_CONFORMER_DIVERSEORDER>
1

> <PUBCHEM_MMFF94_PARTIAL_CHARGES>
18
1 -0.28
10 0.56
11 0.16
12 0.16
13 0.15
14 0.15
15 0.15
16 0.15
17 0.4
18 0.4
2 -0.34
3 -0.34
4 -0.62
5 -0.88
6 0.05
7 0.43
8 -0.15
9 -0.15

> <PUBCHEM_EFFECTIVE_ROTOR_COUNT>
1

> <PUBCHEM_PHARMACOPHORE_FEATURES>
5
1 4 acceptor
1 5 donor
3 3 5 10 cation
5 1 2 3 7 10 rings
6 4 6 8 9 11 12 rings

> <PUBCHEM_HEAVY_ATOM_COUNT>
12

> <PUBCHEM_ATOM_DEF_STEREO_COUNT>
0

> <PUBCHEM_ATOM_UDEF_STEREO_COUNT>
0

> <PUBCHEM_BOND_DEF_STEREO_COUNT>
0

> <PUBCHEM_BOND_UDEF_STEREO_COUNT>
0

> <PUBCHEM_ISOTOPIC_ATOM_COUNT>
0

> <PUBCHEM_COMPONENT_COUNT>
1

> <PUBCHEM_CACTVS_TAUTO_COUNT>
3

> <PUBCHEM_CONFORMER_ID>
0000320400000001

> <PUBCHEM_MMFF94_ENERGY>
21.083

> <PUBCHEM_FEATURE_SELFOVERLAP>
25.371

> <PUBCHEM_SHAPE_FINGERPRINT>
10608611 8 18411423924851765900
11062470 55 12751243592396363446
11769659 78 18411706507940302610
12032990 46 18410005537692839878
12897270 3 18411702079818321516
12932764 1 17632016471644477457
14144814 61 18409449210594618482
14325111 11 18410573993862873924
16945 1 18410856516906465892
19973954 147 18410572928684805636
200 152 18114475504350504919
20201158 50 18413388734945210946
20645477 70 18409735092630333375
21501502 16 18411416254045079744
21501925 9 18340499923428743842
23402655 69 18409736183330168685
23463225 33 18411701019198750278
23552423 10 18343863333349823087
2748010 2 18338800116690091916
3248919 1 17531527693098069125
581208 293 18338803316662240806
7364860 26 18263362504087594168

> <PUBCHEM_SHAPE_MULTIPOLES>
221.16
5.82
1.47
0.58
1.59
0.01
0
-0.89
0
-0.16
0
-0.05
0
0

> <PUBCHEM_SHAPE_SELFOVERLAP>
482.532

> <PUBCHEM_SHAPE_VOLUME>
119.7

> <PUBCHEM_COORDINATE_TYPE>
2
5
10

$$$$

