13323
  -OEChem-06261208573D

 39 40  0     0  0  0  0  0  0999 V2000
   -2.9345    0.7728   -0.0522 O   0  0  0  0  0  0  0  0  0  0  0  0
   -4.0723    0.0947   -0.5144 N   0  0  0  0  0  0  0  0  0  0  0  0
   -6.4006    0.1739   -0.3606 N   0  0  0  0  0  0  0  0  0  0  0  0
   -5.2103    1.7577    0.7795 N   0  0  0  0  0  0  0  0  0  0  0  0
    0.7731    0.2122   -0.5978 C   0  0  0  0  0  0  0  0  0  0  0  0
   -0.5408    0.8531   -0.0894 C   0  0  0  0  0  0  0  0  0  0  0  0
    0.9454   -1.2419   -0.1772 C   0  0  0  0  0  0  0  0  0  0  0  0
    2.0119    1.0358   -0.2594 C   0  0  0  0  0  0  0  0  0  0  0  0
   -1.7889    0.1255   -0.5843 C   0  0  0  0  0  0  0  0  0  0  0  0
    1.6558   -2.0926   -0.9981 C   0  0  0  0  0  0  0  0  0  0  0  0
    3.0974    0.9801   -1.1066 C   0  0  0  0  0  0  0  0  0  0  0  0
    0.3852   -1.6619    1.0111 C   0  0  0  0  0  0  0  0  0  0  0  0
    2.0039    1.8074    0.8824 C   0  0  0  0  0  0  0  0  0  0  0  0
    1.8131   -3.4242   -0.6133 C   0  0  0  0  0  0  0  0  0  0  0  0
    4.2302    1.7329   -0.7970 C   0  0  0  0  0  0  0  0  0  0  0  0
    0.5427   -2.9933    1.3961 C   0  0  0  0  0  0  0  0  0  0  0  0
    3.1366    2.5603    1.1921 C   0  0  0  0  0  0  0  0  0  0  0  0
    1.2567   -3.8744    0.5838 C   0  0  0  0  0  0  0  0  0  0  0  0
    4.2498    2.5229    0.3523 C   0  0  0  0  0  0  0  0  0  0  0  0
   -5.1544    0.6591   -0.0471 C   0  0  0  0  0  0  0  0  0  0  0  0
    0.6778    0.2222   -1.6954 H   0  0  0  0  0  0  0  0  0  0  0  0
   -0.5969    1.8940   -0.4393 H   0  0  0  0  0  0  0  0  0  0  0  0
   -0.6013    0.9269    1.0021 H   0  0  0  0  0  0  0  0  0  0  0  0
   -1.8096   -0.9235   -0.2760 H   0  0  0  0  0  0  0  0  0  0  0  0
   -1.8303    0.1643   -1.6797 H   0  0  0  0  0  0  0  0  0  0  0  0
    2.0819   -1.7618   -1.9395 H   0  0  0  0  0  0  0  0  0  0  0  0
    3.0924    0.3823   -2.0121 H   0  0  0  0  0  0  0  0  0  0  0  0
   -0.1516   -1.0069    1.6865 H   0  0  0  0  0  0  0  0  0  0  0  0
    1.1721    1.8495    1.5745 H   0  0  0  0  0  0  0  0  0  0  0  0
    2.3663   -4.1111   -1.2472 H   0  0  0  0  0  0  0  0  0  0  0  0
    5.0959    1.7064   -1.4524 H   0  0  0  0  0  0  0  0  0  0  0  0
    0.1150   -3.3431    2.3313 H   0  0  0  0  0  0  0  0  0  0  0  0
    3.1544    3.1718    2.0896 H   0  0  0  0  0  0  0  0  0  0  0  0
    1.3799   -4.9109    0.8839 H   0  0  0  0  0  0  0  0  0  0  0  0
    5.1319    3.1087    0.5937 H   0  0  0  0  0  0  0  0  0  0  0  0
   -6.5122   -0.6343   -0.9630 H   0  0  0  0  0  0  0  0  0  0  0  0
   -7.2439    0.6080   -0.0016 H   0  0  0  0  0  0  0  0  0  0  0  0
   -6.0955    2.1351    1.0996 H   0  0  0  0  0  0  0  0  0  0  0  0
   -4.3644    2.2208    1.0934 H   0  0  0  0  0  0  0  0  0  0  0  0
  1  2  1  0  0  0  0
  1  9  1  0  0  0  0
  2 20  2  0  0  0  0
  3 20  1  0  0  0  0
  3 36  1  0  0  0  0
  3 37  1  0  0  0  0
  4 20  1  0  0  0  0
  4 38  1  0  0  0  0
  4 39  1  0  0  0  0
  5  6  1  0  0  0  0
  5  7  1  0  0  0  0
  5  8  1  0  0  0  0
  5 21  1  0  0  0  0
  6  9  1  0  0  0  0
  6 22  1  0  0  0  0
  6 23  1  0  0  0  0
  7 10  2  0  0  0  0
  7 12  1  0  0  0  0
  8 11  2  0  0  0  0
  8 13  1  0  0  0  0
  9 24  1  0  0  0  0
  9 25  1  0  0  0  0
 10 14  1  0  0  0  0
 10 26  1  0  0  0  0
 11 15  1  0  0  0  0
 11 27  1  0  0  0  0
 12 16  2  0  0  0  0
 12 28  1  0  0  0  0
 13 17  2  0  0  0  0
 13 29  1  0  0  0  0
 14 18  2  0  0  0  0
 14 30  1  0  0  0  0
 15 19  2  0  0  0  0
 15 31  1  0  0  0  0
 16 18  1  0  0  0  0
 16 32  1  0  0  0  0
 17 19  1  0  0  0  0
 17 33  1  0  0  0  0
 18 34  1  0  0  0  0
 19 35  1  0  0  0  0
M  END
> <PUBCHEM_COMPOUND_CID>
13323

> <PUBCHEM_CONFORMER_RMSD>
0.8

> <PUBCHEM_CONFORMER_DIVERSEORDER>
1
27
12
26
20
21
28
15
18
4
10
29
9
32
23
25
2
19
11
30
22
3
14
17
16
13
5
31
6
8
24
7

> <PUBCHEM_MMFF94_PARTIAL_CHARGES>
33
1 -0.22
10 -0.15
11 -0.15
12 -0.15
13 -0.15
14 -0.15
15 -0.15
16 -0.15
17 -0.15
18 -0.15
19 -0.15
2 -0.51
20 0.55
26 0.15
27 0.15
28 0.15
29 0.15
3 -0.85
30 0.15
31 0.15
32 0.15
33 0.15
34 0.15
35 0.15
36 0.4
37 0.4
38 0.4
39 0.4
4 -0.85
5 0.29
7 -0.14
8 -0.14
9 0.28

> <PUBCHEM_EFFECTIVE_ROTOR_COUNT>
6

> <PUBCHEM_PHARMACOPHORE_FEATURES>
5
1 3 donor
1 4 donor
4 2 3 4 20 cation
6 7 10 12 14 16 18 rings
6 8 11 13 15 17 19 rings

> <PUBCHEM_HEAVY_ATOM_COUNT>
20

> <PUBCHEM_ATOM_DEF_STEREO_COUNT>
0

> <PUBCHEM_ATOM_UDEF_STEREO_COUNT>
0

> <PUBCHEM_BOND_DEF_STEREO_COUNT>
0

> <PUBCHEM_BOND_UDEF_STEREO_COUNT>
0

> <PUBCHEM_ISOTOPIC_ATOM_COUNT>
0

> <PUBCHEM_COMPONENT_COUNT>
1

> <PUBCHEM_CACTVS_TAUTO_COUNT>
2

> <PUBCHEM_CONFORMER_ID>
0000340B00000001

> <PUBCHEM_MMFF94_ENERGY>
61.202

> <PUBCHEM_FEATURE_SELFOVERLAP>
25.426

> <PUBCHEM_SHAPE_FINGERPRINT>
10764073 3 14256345384556191206
1100329 8 18410296938851252650
12107183 9 17613710840879169505
12532896 13 18264494970998893446
12730499 353 18410845552139854467
12788726 201 17263844685599099458
13140716 1 18341057341343273874
13533116 47 18337953498102387785
13692114 37 18263938652264954747
13878862 14 18124050176513703917
13955234 65 18338234967998570155
14461889 52 18131344173632568427
14955137 171 18263933305415449018
15664445 248 17827345897746442542
15927050 60 18337393726204031518
17868525 174 17835525199511199545
17980427 26 17969525748300359908
20567600 347 18341896272703921874
20600515 1 17180252621843332556
20645477 70 18339081609553716079
21049683 118 17976569150625051848
21054139 6 18191881028573037503
21120745 212 17255673622267755662
21421861 104 18267302225710796433
21524375 3 18409451358437053636
21796203 349 17835493279362099507
22224240 67 18340774719731601333
2255824 54 18265897032807999999
22956985 138 17773050858521224682
23419403 2 17553997313235340802
23558518 356 17614582336207504388
268830 7 18188770686614855841
33824 294 18341612633432978503
42630746 31 18411139164203669631
427121 178 18343865485350101412
4340502 62 18342736295941408707
458136 41 18341895198988367686
474 4 18339921524314850637
5104073 3 18339354288796159481
5895379 119 16881308509933245401
6025842 7 18410015468179506983
621550 34 18272940440087191597
633830 44 18187652344927334140
6442390 28 18339642218011209692
7364860 26 18337112383584855718
81228 2 17549558305478365190
81539 233 18342745112855061989
84936 182 18335135435940024416
9841814 1 18054794145980633459

> <PUBCHEM_SHAPE_MULTIPOLES>
390.78
9.68
4.26
1.15
19.95
4.81
0.16
-9.81
-0.66
-4.25
1.18
-0.64
0.19
0.3

> <PUBCHEM_SHAPE_SELFOVERLAP>
822.167

> <PUBCHEM_SHAPE_VOLUME>
218.8

> <PUBCHEM_COORDINATE_TYPE>
2
5
10

$$$$

