5228
  -OEChem-06261200353D

 33 36  0     0  0  0  0  0  0999 V2000
   -3.3921    3.0249   -0.0695 S   0  0  0  0  0  0  0  0  0  0  0  0
    5.4403    0.4182    0.0379 F   0  0  0  0  0  0  0  0  0  0  0  0
   -2.1964    0.7547   -0.0430 N   0  0  0  0  0  0  0  0  0  0  0  0
   -0.6777    2.3713   -0.0439 N   0  0  0  0  0  0  0  0  0  0  0  0
   -0.6183   -4.1175    0.0094 N   0  0  0  0  0  0  0  0  0  0  0  0
   -3.5724    0.3180   -0.0970 C   0  0  0  0  0  0  0  0  0  0  0  0
   -1.0148    0.1013   -0.0214 C   0  0  0  0  0  0  0  0  0  0  0  0
   -1.9520    2.0877   -0.0541 C   0  0  0  0  0  0  0  0  0  0  0  0
   -4.4297    1.5375    0.2644 C   0  0  0  0  0  0  0  0  0  0  0  0
   -0.0798    1.1233   -0.0211 C   0  0  0  0  0  0  0  0  0  0  0  0
   -0.8776   -1.3345   -0.0114 C   0  0  0  0  0  0  0  0  0  0  0  0
    1.3415    0.9420   -0.0059 C   0  0  0  0  0  0  0  0  0  0  0  0
   -0.8202   -2.0211    1.1963 C   0  0  0  0  0  0  0  0  0  0  0  0
   -0.8057   -2.0375   -1.2088 C   0  0  0  0  0  0  0  0  0  0  0  0
    2.0480    0.8433   -1.2063 C   0  0  0  0  0  0  0  0  0  0  0  0
    2.0247    0.8632    1.2095 C   0  0  0  0  0  0  0  0  0  0  0  0
    3.4314    0.6663   -1.1914 C   0  0  0  0  0  0  0  0  0  0  0  0
    3.4083    0.6864    1.2245 C   0  0  0  0  0  0  0  0  0  0  0  0
   -0.6914   -3.3999    1.1528 C   0  0  0  0  0  0  0  0  0  0  0  0
   -0.6776   -3.4158   -1.1447 C   0  0  0  0  0  0  0  0  0  0  0  0
    4.1117    0.5881    0.0239 C   0  0  0  0  0  0  0  0  0  0  0  0
   -3.7252   -0.5080    0.6031 H   0  0  0  0  0  0  0  0  0  0  0  0
   -3.7681   -0.0208   -1.1199 H   0  0  0  0  0  0  0  0  0  0  0  0
   -5.3613    1.5680   -0.3074 H   0  0  0  0  0  0  0  0  0  0  0  0
   -4.6731    1.5301    1.3321 H   0  0  0  0  0  0  0  0  0  0  0  0
   -0.8737   -1.5073    2.1508 H   0  0  0  0  0  0  0  0  0  0  0  0
   -0.8477   -1.5369   -2.1707 H   0  0  0  0  0  0  0  0  0  0  0  0
    1.5332    0.9022   -2.1625 H   0  0  0  0  0  0  0  0  0  0  0  0
    1.4914    0.9378    2.1544 H   0  0  0  0  0  0  0  0  0  0  0  0
    3.9794    0.5894   -2.1258 H   0  0  0  0  0  0  0  0  0  0  0  0
    3.9382    0.6252    2.1704 H   0  0  0  0  0  0  0  0  0  0  0  0
   -0.6421   -3.9821    2.0670 H   0  0  0  0  0  0  0  0  0  0  0  0
   -0.6174   -4.0106   -2.0501 H   0  0  0  0  0  0  0  0  0  0  0  0
  1  8  1  0  0  0  0
  1  9  1  0  0  0  0
  2 21  1  0  0  0  0
  3  6  1  0  0  0  0
  3  7  1  0  0  0  0
  3  8  1  0  0  0  0
  4  8  2  0  0  0  0
  4 10  1  0  0  0  0
  5 19  2  0  0  0  0
  5 20  1  0  0  0  0
  6  9  1  0  0  0  0
  6 22  1  0  0  0  0
  6 23  1  0  0  0  0
  7 10  2  0  0  0  0
  7 11  1  0  0  0  0
  9 24  1  0  0  0  0
  9 25  1  0  0  0  0
 10 12  1  0  0  0  0
 11 13  2  0  0  0  0
 11 14  1  0  0  0  0
 12 15  2  0  0  0  0
 12 16  1  0  0  0  0
 13 19  1  0  0  0  0
 13 26  1  0  0  0  0
 14 20  2  0  0  0  0
 14 27  1  0  0  0  0
 15 17  1  0  0  0  0
 15 28  1  0  0  0  0
 16 18  2  0  0  0  0
 16 29  1  0  0  0  0
 17 21  2  0  0  0  0
 17 30  1  0  0  0  0
 18 21  1  0  0  0  0
 18 31  1  0  0  0  0
 19 32  1  0  0  0  0
 20 33  1  0  0  0  0
M  END
> <PUBCHEM_COMPOUND_CID>
5228

> <PUBCHEM_CONFORMER_RMSD>
0.6

> <PUBCHEM_CONFORMER_DIVERSEORDER>
1
2
3

> <PUBCHEM_MMFF94_PARTIAL_CHARGES>
29
1 -0.29
10 0.17
11 0.05
12 0.05
13 -0.15
14 -0.15
15 -0.15
16 -0.15
17 -0.15
18 -0.15
19 0.16
2 -0.19
20 0.16
21 0.19
26 0.15
27 0.15
28 0.15
29 0.15
3 0.05
30 0.15
31 0.15
32 0.15
33 0.15
4 -0.57
5 -0.62
6 0.26
7 -0.2
8 0.24
9 0.23

> <PUBCHEM_EFFECTIVE_ROTOR_COUNT>
2.6

> <PUBCHEM_PHARMACOPHORE_FEATURES>
6
1 5 acceptor
3 3 4 8 cation
5 1 3 6 8 9 rings
5 3 4 7 8 10 rings
6 12 15 16 17 18 21 rings
6 5 11 13 14 19 20 rings

> <PUBCHEM_HEAVY_ATOM_COUNT>
21

> <PUBCHEM_ATOM_DEF_STEREO_COUNT>
0

> <PUBCHEM_ATOM_UDEF_STEREO_COUNT>
0

> <PUBCHEM_BOND_DEF_STEREO_COUNT>
0

> <PUBCHEM_BOND_UDEF_STEREO_COUNT>
0

> <PUBCHEM_ISOTOPIC_ATOM_COUNT>
0

> <PUBCHEM_COMPONENT_COUNT>
1

> <PUBCHEM_CACTVS_TAUTO_COUNT>
1

> <PUBCHEM_CONFORMER_ID>
0000146C00000001

> <PUBCHEM_MMFF94_ENERGY>
54.9663

> <PUBCHEM_FEATURE_SELFOVERLAP>
30.68

> <PUBCHEM_SHAPE_FINGERPRINT>
107951 10 18058712698396224818
11578080 2 17172360980103494569
116883 192 17830176809833686039
12035759 4 17973480786161847063
12236239 1 17703789240948319088
12363563 72 17762064233562509166
12500047 106 18408326584012238816
12553582 1 17546999737562733766
12592029 89 18270113668484778505
12714826 92 17972858303603236702
12788726 201 17983282742764802443
12839892 36 18269285702132932441
13004483 165 17757005401731889374
13140716 1 18050001086921156865
133893 2 17691113160253901129
13538477 17 18059293145782204676
13540713 4 17696461155564738381
13681431 1 17328028079748567967
14178342 30 18196954188097610408
14844126 61 18266750073853926418
14955137 171 16099358006770031865
15042514 8 18268143167670435771
15309172 13 18411412947216044377
15906896 17 18341891831860965355
16752209 62 18341058402173581779
16945 1 18338517435012375589
19591789 44 18337392750576048443
20028762 73 18116145572762648631
20197701 30 18339647848813633037
20554085 129 17972063545285234329
20567600 347 18339920532393273783
20645476 183 18060415798456271240
20681677 155 18412826872388648872
20905425 154 17471851879873361838
21421861 104 17688861360556377617
21524375 3 18410293657194882573
21731516 1 17690835666822656258
22224240 67 18335696148996284497
22956985 138 17842277261826204267
23184049 29 17907303143600636464
23366157 5 17696181891857271097
23402539 116 18334303075504734500
23419403 2 17394114037342638975
23557571 272 18117275844576744920
23559900 14 17545889686374779117
23598288 3 17986372409288529642
23728640 28 18411983524978506034
298252 57 18342457062336370353
3091708 16 9196626949422887523
352729 6 18270101453888100901
3759504 43 18342736321094099085
43471831 8 18267586986595814529
465052 167 17773293679255871201
5265222 85 18337660950705419118
6138700 20 17906163311369233222
7364860 26 17831303066217272789
81228 2 18049175375421963729
81539 233 18198063779845058525
9709674 26 18334008359744639374

> <PUBCHEM_SHAPE_MULTIPOLES>
413.8
6.96
4.25
1.17
4.41
5.3
-0.01
-6.37
-0.2
-3.04
0.03
0.61
0.49
0

> <PUBCHEM_SHAPE_SELFOVERLAP>
914.261

> <PUBCHEM_SHAPE_VOLUME>
227.5

> <PUBCHEM_COORDINATE_TYPE>
2
5
10

$$$$

