4520
  -OEChem-06261200113D

 28 27  0     1  0  0  0  0  0999 V2000
   -0.6161   -1.2871   -1.8930 O   0  5  0  0  0  0  0  0  0  0  0  0
   -1.1041   -1.8331    1.5883 O   0  0  0  0  0  0  0  0  0  0  0  0
   -0.5442    0.3622    0.0440 N   0  0  2  0  0  0  0  0  0  0  0  0
   -0.7234   -1.0231   -0.4940 N   0  0  0  0  0  0  0  0  0  0  0  0
    4.3146   -0.2297    0.2639 N   0  3  0  0  0  0  0  0  0  0  0  0
   -1.0237   -2.1577    0.3984 N   0  0  0  0  0  0  0  0  0  0  0  0
   -1.6387    1.2856   -0.2725 C   0  0  0  0  0  0  0  0  0  0  0  0
    0.7413    1.0103   -0.1886 C   0  0  0  0  0  0  0  0  0  0  0  0
    1.8859    0.0534    0.1393 C   0  0  0  0  0  0  0  0  0  0  0  0
    3.2341    0.7148   -0.1089 C   0  0  0  0  0  0  0  0  0  0  0  0
   -1.5512    2.5306    0.6057 C   0  0  0  0  0  0  0  0  0  0  0  0
   -2.9745    0.5738   -0.0826 C   0  0  0  0  0  0  0  0  0  0  0  0
   -1.5822    1.5973   -1.3240 H   0  0  0  0  0  0  0  0  0  0  0  0
    0.8758    1.8855    0.4545 H   0  0  0  0  0  0  0  0  0  0  0  0
    0.8306    1.3398   -1.2315 H   0  0  0  0  0  0  0  0  0  0  0  0
    1.8374   -0.8555   -0.4706 H   0  0  0  0  0  0  0  0  0  0  0  0
    1.8161   -0.2604    1.1892 H   0  0  0  0  0  0  0  0  0  0  0  0
    3.3719    1.6096    0.5052 H   0  0  0  0  0  0  0  0  0  0  0  0
    3.3802    0.9653   -1.1638 H   0  0  0  0  0  0  0  0  0  0  0  0
   -2.4747    3.1166    0.5294 H   0  0  0  0  0  0  0  0  0  0  0  0
   -1.4180    2.2743    1.6630 H   0  0  0  0  0  0  0  0  0  0  0  0
   -0.7427    3.2026    0.3015 H   0  0  0  0  0  0  0  0  0  0  0  0
   -3.1333   -0.2354   -0.8017 H   0  0  0  0  0  0  0  0  0  0  0  0
   -3.8012    1.2785   -0.2320 H   0  0  0  0  0  0  0  0  0  0  0  0
   -3.0792    0.1691    0.9305 H   0  0  0  0  0  0  0  0  0  0  0  0
    5.2414    0.1884    0.1078 H   0  0  0  0  0  0  0  0  0  0  0  0
    4.2717   -1.0944   -0.2917 H   0  0  0  0  0  0  0  0  0  0  0  0
    4.2618   -0.4944    1.2566 H   0  0  0  0  0  0  0  0  0  0  0  0
  1  4  1  0  0  0  0
  2  6  2  0  0  0  0
  3  4  1  0  0  0  0
  3  7  1  0  0  0  0
  3  8  1  0  0  0  0
  4  6  1  0  0  0  0
  5 10  1  0  0  0  0
  5 26  1  0  0  0  0
  5 27  1  0  0  0  0
  5 28  1  0  0  0  0
  7 11  1  0  0  0  0
  7 12  1  0  0  0  0
  7 13  1  0  0  0  0
  8  9  1  0  0  0  0
  8 14  1  0  0  0  0
  8 15  1  0  0  0  0
  9 10  1  0  0  0  0
  9 16  1  0  0  0  0
  9 17  1  0  0  0  0
 10 18  1  0  0  0  0
 10 19  1  0  0  0  0
 11 20  1  0  0  0  0
 11 21  1  0  0  0  0
 11 22  1  0  0  0  0
 12 23  1  0  0  0  0
 12 24  1  0  0  0  0
 12 25  1  0  0  0  0
M  CHG  2   1  -1   5   1
M  END
> <PUBCHEM_COMPOUND_CID>
4520

> <PUBCHEM_CONFORMER_RMSD>
0.6

> <PUBCHEM_CONFORMER_DIVERSEORDER>
1
169
157
188
160
71
23
146
151
192
19
182
120
115
159
127
163
149
175
133
128
118
64
104
123
184
185
187
148
82
174
154
116
89
181
124
4
177
37
180
168
59
112
65
92
48
173
161
27
153
150
109
21
69
114
170
179
191
190
78
61
111
142
96
32
14
164
113
88
8
16
158
129
145
103
85
44
80
143
87
51
171
134
60
97
81
45
102
43
47
119
63
135
110
90
75
6
91
140
77
20
101
72
49
17
147
35
99
86
155
36
139
131
183
84
126
117
30
55
24
178
122
67
94
50
15
18
100
130
106
74
79
95
125
62
68
3
189
66
167
34
54
166
52
31
83
156
33
144
12
108
93
11
10
9
29
121
138
5
162
56
28
98
132
2
186
13
58
105
7
26
25
107
39
41
165
42
152
40
53
57
176
38
76
136
46
137
172
141
22
70
73

> <PUBCHEM_MMFF94_PARTIAL_CHARGES>
12
1 -0.86
10 0.5
2 -0.16
26 0.45
27 0.45
28 0.45
3 -0.69
4 0.34
5 -0.85
6 -0.17
7 0.27
8 0.27

> <PUBCHEM_EFFECTIVE_ROTOR_COUNT>
6

> <PUBCHEM_PHARMACOPHORE_FEATURES>
3
1 5 cation
1 5 donor
3 7 11 12 hydrophobe

> <PUBCHEM_HEAVY_ATOM_COUNT>
12

> <PUBCHEM_ATOM_DEF_STEREO_COUNT>
0

> <PUBCHEM_ATOM_UDEF_STEREO_COUNT>
0

> <PUBCHEM_BOND_DEF_STEREO_COUNT>
0

> <PUBCHEM_BOND_UDEF_STEREO_COUNT>
0

> <PUBCHEM_ISOTOPIC_ATOM_COUNT>
0

> <PUBCHEM_COMPONENT_COUNT>
1

> <PUBCHEM_CACTVS_TAUTO_COUNT>
1

> <PUBCHEM_CONFORMER_ID>
000011A800000001

> <PUBCHEM_MMFF94_ENERGY>
14.8233

> <PUBCHEM_FEATURE_SELFOVERLAP>
15.223

> <PUBCHEM_SHAPE_FINGERPRINT>
13024252 1 12175629481384458765
13380535 76 18410013277498220446
14325111 11 18263082283019696948
14577589 140 18259984873175726910
20871998 184 18187922829045232692
21524375 3 18191308384214056497
23402539 116 18261967313730763485
23419403 2 14781835861762013527
305870 269 17981886655071166400
366044 4 18187651340031158333
528862 383 17701549634330016154
81539 233 18053947535128431965

> <PUBCHEM_SHAPE_MULTIPOLES>
215.29
4.89
2.26
1.07
6.06
0.29
0.14
-1.31
-0.37
-1.64
-0.51
-0.37
0.63
-0.04

> <PUBCHEM_SHAPE_SELFOVERLAP>
385.94

> <PUBCHEM_SHAPE_VOLUME>
139.7

> <PUBCHEM_COORDINATE_TYPE>
2
5
10

$$$$

