17395462
  -OEChem-06241222502D

 54 57  0     0  0  0  0  0  0999 V2000
    7.2764   -3.8047    0.0000 S   0  0  0  0  0  0  0  0  0  0  0  0
    6.3301    2.5000    0.0000 O   0  0  0  0  0  0  0  0  0  0  0  0
    4.5981    2.5000    0.0000 N   0  0  0  0  0  0  0  0  0  0  0  0
    5.4641   -1.0000    0.0000 N   0  0  0  0  0  0  0  0  0  0  0  0
    4.5981   -2.5000    0.0000 N   0  0  0  0  0  0  0  0  0  0  0  0
    5.4641   -4.0000    0.0000 N   0  0  0  0  0  0  0  0  0  0  0  0
    5.4641    1.0000    0.0000 C   0  0  0  0  0  0  0  0  0  0  0  0
    6.3301    0.5000    0.0000 C   0  0  0  0  0  0  0  0  0  0  0  0
    4.5981    0.5000    0.0000 C   0  0  0  0  0  0  0  0  0  0  0  0
    2.8660    3.5000    0.0000 C   0  0  0  0  0  0  0  0  0  0  0  0
    2.8660    2.5000    0.0000 C   0  0  0  0  0  0  0  0  0  0  0  0
    3.7320    4.0000    0.0000 C   0  0  0  0  0  0  0  0  0  0  0  0
    4.5981    3.5000    0.0000 C   0  0  0  0  0  0  0  0  0  0  0  0
    3.7320    2.0000    0.0000 C   0  0  0  0  0  0  0  0  0  0  0  0
    5.4641    2.0000    0.0000 C   0  0  0  0  0  0  0  0  0  0  0  0
    6.3301   -0.5000    0.0000 C   0  0  0  0  0  0  0  0  0  0  0  0
    4.5981   -0.5000    0.0000 C   0  0  0  0  0  0  0  0  0  0  0  0
    2.0000    4.0000    0.0000 C   0  0  0  0  0  0  0  0  0  0  0  0
    5.4641   -2.0000    0.0000 C   0  0  0  0  0  0  0  0  0  0  0  0
    6.3301   -2.5000    0.0000 C   0  0  0  0  0  0  0  0  0  0  0  0
    7.2764   -2.1953    0.0000 C   0  0  0  0  0  0  0  0  0  0  0  0
    6.3301   -3.5000    0.0000 C   0  0  0  0  0  0  0  0  0  0  0  0
    7.8600   -3.0000    0.0000 C   0  0  0  0  0  0  0  0  0  0  0  0
    4.5981   -3.5000    0.0000 C   0  0  0  0  0  0  0  0  0  0  0  0
    7.5870   -1.2448    0.0000 C   0  0  0  0  0  0  0  0  0  0  0  0
    8.8600   -3.0000    0.0000 C   0  0  0  0  0  0  0  0  0  0  0  0
    6.0010    1.3100    0.0000 H   0  0  0  0  0  0  0  0  0  0  0  0
    6.9407    0.3923    0.0000 H   0  0  0  0  0  0  0  0  0  0  0  0
    6.5422    1.0826    0.0000 H   0  0  0  0  0  0  0  0  0  0  0  0
    4.3860    1.0826    0.0000 H   0  0  0  0  0  0  0  0  0  0  0  0
    3.9875    0.3923    0.0000 H   0  0  0  0  0  0  0  0  0  0  0  0
    2.8660    4.1200    0.0000 H   0  0  0  0  0  0  0  0  0  0  0  0
    4.1306    4.4750    0.0000 H   0  0  0  0  0  0  0  0  0  0  0  0
    2.2554    2.6077    0.0000 H   0  0  0  0  0  0  0  0  0  0  0  0
    2.6540    1.9174    0.0000 H   0  0  0  0  0  0  0  0  0  0  0  0
    3.3335    4.4750    0.0000 H   0  0  0  0  0  0  0  0  0  0  0  0
    3.3335    1.5250    0.0000 H   0  0  0  0  0  0  0  0  0  0  0  0
    4.1306    1.5250    0.0000 H   0  0  0  0  0  0  0  0  0  0  0  0
    5.2087    3.3923    0.0000 H   0  0  0  0  0  0  0  0  0  0  0  0
    4.8101    4.0826    0.0000 H   0  0  0  0  0  0  0  0  0  0  0  0
    6.5422   -1.0826    0.0000 H   0  0  0  0  0  0  0  0  0  0  0  0
    6.9407   -0.3923    0.0000 H   0  0  0  0  0  0  0  0  0  0  0  0
    3.9875   -0.3923    0.0000 H   0  0  0  0  0  0  0  0  0  0  0  0
    4.3860   -1.0826    0.0000 H   0  0  0  0  0  0  0  0  0  0  0  0
    2.3100    4.5369    0.0000 H   0  0  0  0  0  0  0  0  0  0  0  0
    1.4631    4.3100    0.0000 H   0  0  0  0  0  0  0  0  0  0  0  0
    1.6900    3.4631    0.0000 H   0  0  0  0  0  0  0  0  0  0  0  0
    4.0611   -3.8100    0.0000 H   0  0  0  0  0  0  0  0  0  0  0  0
    8.1763   -1.4374    0.0000 H   0  0  0  0  0  0  0  0  0  0  0  0
    7.7796   -0.6554    0.0000 H   0  0  0  0  0  0  0  0  0  0  0  0
    6.9977   -1.0521    0.0000 H   0  0  0  0  0  0  0  0  0  0  0  0
    8.8600   -3.6200    0.0000 H   0  0  0  0  0  0  0  0  0  0  0  0
    9.4800   -3.0000    0.0000 H   0  0  0  0  0  0  0  0  0  0  0  0
    8.8600   -2.3800    0.0000 H   0  0  0  0  0  0  0  0  0  0  0  0
  1 22  1  0  0  0  0
  1 23  1  0  0  0  0
  2 15  2  0  0  0  0
  3 13  1  0  0  0  0
  3 14  1  0  0  0  0
  3 15  1  0  0  0  0
  4 16  1  0  0  0  0
  4 17  1  0  0  0  0
  4 19  1  0  0  0  0
  5 19  1  0  0  0  0
  5 24  2  0  0  0  0
  6 22  2  0  0  0  0
  6 24  1  0  0  0  0
  7  8  1  0  0  0  0
  7  9  1  0  0  0  0
  7 15  1  0  0  0  0
  7 27  1  0  0  0  0
  8 16  1  0  0  0  0
  8 28  1  0  0  0  0
  8 29  1  0  0  0  0
  9 17  1  0  0  0  0
  9 30  1  0  0  0  0
  9 31  1  0  0  0  0
 10 11  1  0  0  0  0
 10 12  1  0  0  0  0
 10 18  1  0  0  0  0
 10 32  1  0  0  0  0
 11 14  1  0  0  0  0
 11 34  1  0  0  0  0
 11 35  1  0  0  0  0
 12 13  1  0  0  0  0
 12 33  1  0  0  0  0
 12 36  1  0  0  0  0
 13 39  1  0  0  0  0
 13 40  1  0  0  0  0
 14 37  1  0  0  0  0
 14 38  1  0  0  0  0
 16 41  1  0  0  0  0
 16 42  1  0  0  0  0
 17 43  1  0  0  0  0
 17 44  1  0  0  0  0
 18 45  1  0  0  0  0
 18 46  1  0  0  0  0
 18 47  1  0  0  0  0
 19 20  2  0  0  0  0
 20 21  1  0  0  0  0
 20 22  1  0  0  0  0
 21 23  2  0  0  0  0
 21 25  1  0  0  0  0
 23 26  1  0  0  0  0
 24 48  1  0  0  0  0
 25 49  1  0  0  0  0
 25 50  1  0  0  0  0
 25 51  1  0  0  0  0
 26 52  1  0  0  0  0
 26 53  1  0  0  0  0
 26 54  1  0  0  0  0
M  END
> <PUBCHEM_COMPOUND_CID>
17395462

> <PUBCHEM_COMPOUND_CANONICALIZED>
1

> <PUBCHEM_CACTVS_COMPLEXITY>
502

> <PUBCHEM_CACTVS_HBOND_ACCEPTOR>
5

> <PUBCHEM_CACTVS_HBOND_DONOR>
0

> <PUBCHEM_CACTVS_ROTATABLE_BOND>
2

> <PUBCHEM_CACTVS_SUBSKEYS>
AAADceB7oABAAAAAAAAAAAAAAAAAASAAAAAsWLAAAAAAAFgB+AAAHgQAAAAADQDB2gQHsdcIEAisAgNxdACD0KlxCLgB2DEoRJiIKDLg2NGEBAxohgLoyCYUAAAOgAAAAAAAAAAAAAAAAAAAAAAAAAAAAA==

> <PUBCHEM_IUPAC_OPENEYE_NAME>
[1-(5,6-dimethylthieno[2,3-d]pyrimidin-4-yl)-4-piperidyl]-(4-methyl-1-piperidyl)methanone

> <PUBCHEM_IUPAC_CAS_NAME>
[1-(5,6-dimethyl-4-thieno[2,3-d]pyrimidinyl)-4-piperidinyl]-(4-methyl-1-piperidinyl)methanone

> <PUBCHEM_IUPAC_NAME>
[1-(5,6-dimethylthieno[2,3-d]pyrimidin-4-yl)piperidin-4-yl]-(4-methylpiperidin-1-yl)methanone

> <PUBCHEM_IUPAC_SYSTEMATIC_NAME>
[1-(5,6-dimethylthieno[2,3-d]pyrimidin-4-yl)piperidin-4-yl]-(4-methylpiperidin-1-yl)methanone

> <PUBCHEM_IUPAC_TRADITIONAL_NAME>
[1-(5,6-dimethylthieno[2,3-d]pyrimidin-4-yl)-4-piperidyl]-(4-methylpiperidino)methanone

> <PUBCHEM_IUPAC_INCHI>
InChI=1S/C20H28N4OS/c1-13-4-8-24(9-5-13)20(25)16-6-10-23(11-7-16)18-17-14(2)15(3)26-19(17)22-12-21-18/h12-13,16H,4-11H2,1-3H3

> <PUBCHEM_IUPAC_INCHIKEY>
WJBHQHAMKDLHGS-UHFFFAOYSA-N

> <PUBCHEM_XLOGP3_AA>
4

> <PUBCHEM_EXACT_MASS>
372.198383

> <PUBCHEM_MOLECULAR_FORMULA>
C20H28N4OS

> <PUBCHEM_MOLECULAR_WEIGHT>
372.52752

> <PUBCHEM_OPENEYE_CAN_SMILES>
CC1CCN(CC1)C(=O)C2CCN(CC2)C3=C4C(=C(SC4=NC=N3)C)C

> <PUBCHEM_OPENEYE_ISO_SMILES>
CC1CCN(CC1)C(=O)C2CCN(CC2)C3=C4C(=C(SC4=NC=N3)C)C

> <PUBCHEM_CACTVS_TPSA>
77.6

> <PUBCHEM_MONOISOTOPIC_WEIGHT>
372.198383

> <PUBCHEM_TOTAL_CHARGE>
0

> <PUBCHEM_HEAVY_ATOM_COUNT>
26

> <PUBCHEM_ATOM_DEF_STEREO_COUNT>
0

> <PUBCHEM_ATOM_UDEF_STEREO_COUNT>
0

> <PUBCHEM_BOND_DEF_STEREO_COUNT>
0

> <PUBCHEM_BOND_UDEF_STEREO_COUNT>
0

> <PUBCHEM_ISOTOPIC_ATOM_COUNT>
0

> <PUBCHEM_COMPONENT_COUNT>
1

> <PUBCHEM_CACTVS_TAUTO_COUNT>
1

> <PUBCHEM_COORDINATE_TYPE>
1
5
255

> <PUBCHEM_BONDANNOTATIONS>
1  22  8
1  23  8
19  20  8
20  21  8
20  22  8
21  23  8
5  19  8
5  24  8
6  22  8
6  24  8

$$$$

