17395758
  -OEChem-06241222522D

 54 55  0     1  0  0  0  0  0999 V2000
    6.0875    1.0241    0.0000 S   0  0  0  0  0  0  0  0  0  0  0  0
    4.7026   -0.0973    0.0000 S   0  0  0  0  0  0  0  0  0  0  0  0
   10.2913    4.0784    0.0000 O   0  0  0  0  0  0  0  0  0  0  0  0
   10.4723    2.3558    0.0000 O   0  0  0  0  0  0  0  0  0  0  0  0
    6.9010    2.8512    0.0000 O   0  0  0  0  0  0  0  0  0  0  0  0
    8.4833    2.1467    0.0000 N   0  0  0  0  0  0  0  0  0  0  0  0
    3.7320   -1.5918    0.0000 N   0  0  0  0  0  0  0  0  0  0  0  0
    6.1808   -0.7554    0.0000 N   0  0  0  0  0  0  0  0  0  0  0  0
    5.5116   -1.4986    0.0000 N   0  0  0  0  0  0  0  0  0  0  0  0
    8.7090    4.7828    0.0000 C   0  0  0  0  0  0  0  0  0  0  0  0
    8.3022    3.8693    0.0000 C   0  0  0  0  0  0  0  0  0  0  0  0
    8.8900    3.0603    0.0000 C   0  0  3  0  0  0  0  0  0  0  0  0
    8.1212    5.5918    0.0000 C   0  0  0  0  0  0  0  0  0  0  0  0
    9.7035    4.8874    0.0000 C   0  0  0  0  0  0  0  0  0  0  0  0
    9.8845    3.1648    0.0000 C   0  0  0  0  0  0  0  0  0  0  0  0
    7.4888    2.0422    0.0000 C   0  0  0  0  0  0  0  0  0  0  0  0
    7.0820    1.1286    0.0000 C   0  0  0  0  0  0  0  0  0  0  0  0
    2.8660   -3.0918    0.0000 C   0  0  0  0  0  0  0  0  0  0  0  0
    3.7320   -2.5918    0.0000 C   0  0  0  0  0  0  0  0  0  0  0  0
   11.2858    4.1829    0.0000 C   0  0  0  0  0  0  0  0  0  0  0  0
    3.7320   -4.5918    0.0000 C   0  0  0  0  0  0  0  0  0  0  0  0
    2.8660   -4.0918    0.0000 C   0  0  0  0  0  0  0  0  0  0  0  0
    4.5981   -3.0918    0.0000 C   0  0  0  0  0  0  0  0  0  0  0  0
    4.5981   -4.0918    0.0000 C   0  0  0  0  0  0  0  0  0  0  0  0
    2.0000   -2.5918    0.0000 C   0  0  0  0  0  0  0  0  0  0  0  0
    5.6808    0.1106    0.0000 C   0  0  0  0  0  0  0  0  0  0  0  0
    4.5981   -1.0918    0.0000 C   0  0  0  0  0  0  0  0  0  0  0  0
    3.7320   -5.5918    0.0000 C   0  0  0  0  0  0  0  0  0  0  0  0
    9.0734    4.2812    0.0000 H   0  0  0  0  0  0  0  0  0  0  0  0
    7.7882    4.2160    0.0000 H   0  0  0  0  0  0  0  0  0  0  0  0
    7.8715    3.4233    0.0000 H   0  0  0  0  0  0  0  0  0  0  0  0
    8.2734    2.9955    0.0000 H   0  0  0  0  0  0  0  0  0  0  0  0
    8.6228    5.9563    0.0000 H   0  0  0  0  0  0  0  0  0  0  0  0
    7.7567    6.0934    0.0000 H   0  0  0  0  0  0  0  0  0  0  0  0
    7.6196    5.2274    0.0000 H   0  0  0  0  0  0  0  0  0  0  0  0
    9.7683    4.2708    0.0000 H   0  0  0  0  0  0  0  0  0  0  0  0
   10.3201    4.9522    0.0000 H   0  0  0  0  0  0  0  0  0  0  0  0
    9.6387    5.5040    0.0000 H   0  0  0  0  0  0  0  0  0  0  0  0
    8.8477    1.6451    0.0000 H   0  0  0  0  0  0  0  0  0  0  0  0
    7.0388    0.5102    0.0000 H   0  0  0  0  0  0  0  0  0  0  0  0
    7.6836    0.9787    0.0000 H   0  0  0  0  0  0  0  0  0  0  0  0
   11.3506    3.5663    0.0000 H   0  0  0  0  0  0  0  0  0  0  0  0
   11.9024    4.2477    0.0000 H   0  0  0  0  0  0  0  0  0  0  0  0
   11.2210    4.7995    0.0000 H   0  0  0  0  0  0  0  0  0  0  0  0
    2.3291   -4.4018    0.0000 H   0  0  0  0  0  0  0  0  0  0  0  0
    5.1350   -2.7818    0.0000 H   0  0  0  0  0  0  0  0  0  0  0  0
    5.1350   -4.4018    0.0000 H   0  0  0  0  0  0  0  0  0  0  0  0
    3.1951   -1.2818    0.0000 H   0  0  0  0  0  0  0  0  0  0  0  0
    2.3100   -2.0549    0.0000 H   0  0  0  0  0  0  0  0  0  0  0  0
    1.4631   -2.2818    0.0000 H   0  0  0  0  0  0  0  0  0  0  0  0
    1.6900   -3.1288    0.0000 H   0  0  0  0  0  0  0  0  0  0  0  0
    3.1120   -5.5918    0.0000 H   0  0  0  0  0  0  0  0  0  0  0  0
    3.7320   -6.2118    0.0000 H   0  0  0  0  0  0  0  0  0  0  0  0
    4.3520   -5.5918    0.0000 H   0  0  0  0  0  0  0  0  0  0  0  0
  1 17  1  0  0  0  0
  1 26  1  0  0  0  0
  2 26  1  0  0  0  0
  2 27  1  0  0  0  0
  3 15  1  0  0  0  0
  3 20  1  0  0  0  0
  4 15  2  0  0  0  0
  5 16  2  0  0  0  0
  6 12  1  0  0  0  0
  6 16  1  0  0  0  0
  6 39  1  0  0  0  0
  7 19  1  0  0  0  0
  7 27  1  0  0  0  0
  7 48  1  0  0  0  0
  8  9  1  0  0  0  0
  8 26  2  0  0  0  0
  9 27  2  0  0  0  0
 10 11  1  0  0  0  0
 10 13  1  0  0  0  0
 10 14  1  0  0  0  0
 10 29  1  0  0  0  0
 11 12  1  0  0  0  0
 11 30  1  0  0  0  0
 11 31  1  0  0  0  0
 12 15  1  0  0  0  0
 12 32  1  0  0  0  0
 13 33  1  0  0  0  0
 13 34  1  0  0  0  0
 13 35  1  0  0  0  0
 14 36  1  0  0  0  0
 14 37  1  0  0  0  0
 14 38  1  0  0  0  0
 16 17  1  0  0  0  0
 17 40  1  0  0  0  0
 17 41  1  0  0  0  0
 18 19  2  0  0  0  0
 18 22  1  0  0  0  0
 18 25  1  0  0  0  0
 19 23  1  0  0  0  0
 20 42  1  0  0  0  0
 20 43  1  0  0  0  0
 20 44  1  0  0  0  0
 21 22  2  0  0  0  0
 21 24  1  0  0  0  0
 21 28  1  0  0  0  0
 22 45  1  0  0  0  0
 23 24  2  0  0  0  0
 23 46  1  0  0  0  0
 24 47  1  0  0  0  0
 25 49  1  0  0  0  0
 25 50  1  0  0  0  0
 25 51  1  0  0  0  0
 28 52  1  0  0  0  0
 28 53  1  0  0  0  0
 28 54  1  0  0  0  0
M  END
> <PUBCHEM_COMPOUND_CID>
17395758

> <PUBCHEM_COMPOUND_CANONICALIZED>
1

> <PUBCHEM_CACTVS_COMPLEXITY>
523

> <PUBCHEM_CACTVS_HBOND_ACCEPTOR>
8

> <PUBCHEM_CACTVS_HBOND_DONOR>
2

> <PUBCHEM_CACTVS_ROTATABLE_BOND>
10

> <PUBCHEM_CACTVS_SUBSKEYS>
AAADceB7sABgAAAAAAAAAAAAAAAAAWAAAAAwAAAAAAAAAAABwAAAHgQYAAAADSjF2Aaz2ILABAiuAiXSeACSAQJhAhkNiIGIZIiKIDLAmbGFIAh0lgLYyCeYgEAOCAACAAACAAAQAAQAAAQAAAAAAAAAAA==

> <PUBCHEM_IUPAC_OPENEYE_NAME>
methyl 2-[[2-[[5-(2,4-dimethylanilino)-1,3,4-thiadiazol-2-yl]sulfanyl]acetyl]amino]-4-methyl-pentanoate

> <PUBCHEM_IUPAC_CAS_NAME>
2-[[2-[[5-(2,4-dimethylanilino)-1,3,4-thiadiazol-2-yl]thio]-1-oxoethyl]amino]-4-methylpentanoic acid methyl ester

> <PUBCHEM_IUPAC_NAME>
methyl 2-[[2-[[5-(2,4-dimethylanilino)-1,3,4-thiadiazol-2-yl]sulfanyl]acetyl]amino]-4-methylpentanoate

> <PUBCHEM_IUPAC_SYSTEMATIC_NAME>
methyl 2-[2-[[5-[(2,4-dimethylphenyl)amino]-1,3,4-thiadiazol-2-yl]sulfanyl]ethanoylamino]-4-methyl-pentanoate

> <PUBCHEM_IUPAC_TRADITIONAL_NAME>
2-[[2-[[5-(2,4-dimethylanilino)-1,3,4-thiadiazol-2-yl]thio]acetyl]amino]-4-methyl-valeric acid methyl ester

> <PUBCHEM_IUPAC_INCHI>
InChI=1S/C19H26N4O3S2/c1-11(2)8-15(17(25)26-5)20-16(24)10-27-19-23-22-18(28-19)21-14-7-6-12(3)9-13(14)4/h6-7,9,11,15H,8,10H2,1-5H3,(H,20,24)(H,21,22)

> <PUBCHEM_IUPAC_INCHIKEY>
SEVAXPOZFKTLHG-UHFFFAOYSA-N

> <PUBCHEM_XLOGP3_AA>
4.8

> <PUBCHEM_EXACT_MASS>
422.144633

> <PUBCHEM_MOLECULAR_FORMULA>
C19H26N4O3S2

> <PUBCHEM_MOLECULAR_WEIGHT>
422.56474

> <PUBCHEM_OPENEYE_CAN_SMILES>
CC1=CC(=C(C=C1)NC2=NN=C(S2)SCC(=O)NC(CC(C)C)C(=O)OC)C

> <PUBCHEM_OPENEYE_ISO_SMILES>
CC1=CC(=C(C=C1)NC2=NN=C(S2)SCC(=O)NC(CC(C)C)C(=O)OC)C

> <PUBCHEM_CACTVS_TPSA>
147

> <PUBCHEM_MONOISOTOPIC_WEIGHT>
422.144633

> <PUBCHEM_TOTAL_CHARGE>
0

> <PUBCHEM_HEAVY_ATOM_COUNT>
28

> <PUBCHEM_ATOM_DEF_STEREO_COUNT>
0

> <PUBCHEM_ATOM_UDEF_STEREO_COUNT>
1

> <PUBCHEM_BOND_DEF_STEREO_COUNT>
0

> <PUBCHEM_BOND_UDEF_STEREO_COUNT>
0

> <PUBCHEM_ISOTOPIC_ATOM_COUNT>
0

> <PUBCHEM_COMPONENT_COUNT>
1

> <PUBCHEM_CACTVS_TAUTO_COUNT>
4

> <PUBCHEM_COORDINATE_TYPE>
1
5
255

> <PUBCHEM_BONDANNOTATIONS>
12  11  3
18  19  8
18  22  8
19  23  8
2  26  8
2  27  8
21  22  8
21  24  8
23  24  8
8  26  8
8  9  8
9  27  8

$$$$

