12204
  -OEChem-06261206393D

 41 40  0     0  0  0  0  0  0999 V2000
   -6.1585   -0.5071   -0.0202 O   0  0  0  0  0  0  0  0  0  0  0  0
    6.1638   -0.5109    0.0172 O   0  0  0  0  0  0  0  0  0  0  0  0
   -5.0831    1.5324    0.0643 O   0  0  0  0  0  0  0  0  0  0  0  0
    5.0627    1.5168   -0.0626 O   0  0  0  0  0  0  0  0  0  0  0  0
    0.0127    0.3275   -0.0215 C   0  0  0  0  0  0  0  0  0  0  0  0
   -1.2588   -0.5240   -0.0042 C   0  0  0  0  0  0  0  0  0  0  0  0
    1.2671   -0.5499   -0.0132 C   0  0  0  0  0  0  0  0  0  0  0  0
   -2.5450    0.3059    0.0189 C   0  0  0  0  0  0  0  0  0  0  0  0
    2.5399    0.3017    0.0015 C   0  0  0  0  0  0  0  0  0  0  0  0
   -3.8156   -0.5417   -0.0372 C   0  0  0  0  0  0  0  0  0  0  0  0
    3.8089   -0.5452   -0.0206 C   0  0  0  0  0  0  0  0  0  0  0  0
   -5.0642    0.3106    0.0059 C   0  0  0  0  0  0  0  0  0  0  0  0
    5.0632    0.2930   -0.0248 C   0  0  0  0  0  0  0  0  0  0  0  0
   -7.4253    0.1574    0.0263 C   0  0  0  0  0  0  0  0  0  0  0  0
    7.4232    0.1688    0.0157 C   0  0  0  0  0  0  0  0  0  0  0  0
   -8.5276   -0.8796   -0.0102 C   0  0  0  0  0  0  0  0  0  0  0  0
    8.5366   -0.8557    0.0647 C   0  0  0  0  0  0  0  0  0  0  0  0
    0.0141    0.9676   -0.9119 H   0  0  0  0  0  0  0  0  0  0  0  0
    0.0200    0.9890    0.8532 H   0  0  0  0  0  0  0  0  0  0  0  0
   -1.2446   -1.1830    0.8728 H   0  0  0  0  0  0  0  0  0  0  0  0
   -1.2672   -1.1737   -0.8883 H   0  0  0  0  0  0  0  0  0  0  0  0
    1.2559   -1.2038    0.8671 H   0  0  0  0  0  0  0  0  0  0  0  0
    1.2683   -1.1974   -0.8983 H   0  0  0  0  0  0  0  0  0  0  0  0
   -2.5388    1.0026   -0.8292 H   0  0  0  0  0  0  0  0  0  0  0  0
   -2.5568    0.9243    0.9254 H   0  0  0  0  0  0  0  0  0  0  0  0
    2.5417    0.9415    0.8932 H   0  0  0  0  0  0  0  0  0  0  0  0
    2.5356    0.9754   -0.8649 H   0  0  0  0  0  0  0  0  0  0  0  0
   -3.8295   -1.1253   -0.9643 H   0  0  0  0  0  0  0  0  0  0  0  0
   -3.8376   -1.2266    0.8177 H   0  0  0  0  0  0  0  0  0  0  0  0
    3.8187   -1.1733   -0.9184 H   0  0  0  0  0  0  0  0  0  0  0  0
    3.8328   -1.1909    0.8644 H   0  0  0  0  0  0  0  0  0  0  0  0
   -7.4974    0.7418    0.9503 H   0  0  0  0  0  0  0  0  0  0  0  0
   -7.5183    0.8270   -0.8361 H   0  0  0  0  0  0  0  0  0  0  0  0
    7.5129    0.7696   -0.8962 H   0  0  0  0  0  0  0  0  0  0  0  0
    7.4851    0.8250    0.8911 H   0  0  0  0  0  0  0  0  0  0  0  0
   -9.5123   -0.4051    0.0239 H   0  0  0  0  0  0  0  0  0  0  0  0
   -8.4578   -1.4844   -0.9204 H   0  0  0  0  0  0  0  0  0  0  0  0
   -8.4373   -1.5680    0.8365 H   0  0  0  0  0  0  0  0  0  0  0  0
    9.5160   -0.3693    0.0649 H   0  0  0  0  0  0  0  0  0  0  0  0
    8.4499   -1.4764    0.9626 H   0  0  0  0  0  0  0  0  0  0  0  0
    8.4772   -1.5308   -0.7954 H   0  0  0  0  0  0  0  0  0  0  0  0
  1 12  1  0  0  0  0
  1 14  1  0  0  0  0
  2 13  1  0  0  0  0
  2 15  1  0  0  0  0
  3 12  2  0  0  0  0
  4 13  2  0  0  0  0
  5  6  1  0  0  0  0
  5  7  1  0  0  0  0
  5 18  1  0  0  0  0
  5 19  1  0  0  0  0
  6  8  1  0  0  0  0
  6 20  1  0  0  0  0
  6 21  1  0  0  0  0
  7  9  1  0  0  0  0
  7 22  1  0  0  0  0
  7 23  1  0  0  0  0
  8 10  1  0  0  0  0
  8 24  1  0  0  0  0
  8 25  1  0  0  0  0
  9 11  1  0  0  0  0
  9 26  1  0  0  0  0
  9 27  1  0  0  0  0
 10 12  1  0  0  0  0
 10 28  1  0  0  0  0
 10 29  1  0  0  0  0
 11 13  1  0  0  0  0
 11 30  1  0  0  0  0
 11 31  1  0  0  0  0
 14 16  1  0  0  0  0
 14 32  1  0  0  0  0
 14 33  1  0  0  0  0
 15 17  1  0  0  0  0
 15 34  1  0  0  0  0
 15 35  1  0  0  0  0
 16 36  1  0  0  0  0
 16 37  1  0  0  0  0
 16 38  1  0  0  0  0
 17 39  1  0  0  0  0
 17 40  1  0  0  0  0
 17 41  1  0  0  0  0
M  END
> <PUBCHEM_COMPOUND_CID>
12204

> <PUBCHEM_CONFORMER_RMSD>
1

> <PUBCHEM_CONFORMER_DIVERSEORDER>
1
126
12
115
26
128
103
71
123
11
75
140
34
18
7
70
124
53
82
133
99
13
119
66
52
55
109
85
100
69
42
102
10
33
122
116
97
51
86
45
83
107
40
8
111
41
58
141
138
113
89
15
43
91
39
27
31
118
139
6
121
3
73
79
29
49
127
106
96
24
136
44
63
98
129
25
62
37
2
56
50
19
46
57
23
120
132
48
30
17
21
105
125
60
117
108
78
134
5
80
131
20
101
54
93
130
47
9
74
137
112
68
28
38
22
92
104
114
87
94
135
65
35
84
77
59
95
81
72
32
76
64
67
4
88
61
16
14
90
36
110

> <PUBCHEM_MMFF94_PARTIAL_CHARGES>
10
1 -0.43
10 0.06
11 0.06
12 0.66
13 0.66
14 0.28
15 0.28
2 -0.43
3 -0.57
4 -0.57

> <PUBCHEM_EFFECTIVE_ROTOR_COUNT>
12

> <PUBCHEM_PHARMACOPHORE_FEATURES>
2
1 3 acceptor
1 4 acceptor

> <PUBCHEM_HEAVY_ATOM_COUNT>
17

> <PUBCHEM_ATOM_DEF_STEREO_COUNT>
0

> <PUBCHEM_ATOM_UDEF_STEREO_COUNT>
0

> <PUBCHEM_BOND_DEF_STEREO_COUNT>
0

> <PUBCHEM_BOND_UDEF_STEREO_COUNT>
0

> <PUBCHEM_ISOTOPIC_ATOM_COUNT>
0

> <PUBCHEM_COMPONENT_COUNT>
1

> <PUBCHEM_CACTVS_TAUTO_COUNT>
1

> <PUBCHEM_CONFORMER_ID>
00002FAC00000001

> <PUBCHEM_MMFF94_ENERGY>
5.7641

> <PUBCHEM_FEATURE_SELFOVERLAP>
10.149

> <PUBCHEM_SHAPE_FINGERPRINT>
11315181 36 11815894570645530133
12091667 2 18334576845863367043
13533116 47 17275114972247534866
14123256 10 15791729710940298723
14202775 3 18411976966321644291
14251764 18 18131354124027417859
14251764 46 18410855460133540491
17834076 25 18409730664033201995
20281389 69 18412266129267936136
20621476 8 18272091612630613646
21095086 128 18343303669078428051
21150785 3 17821729429421871563
21315763 28 18410856559645402125
22224240 67 16128375956476813162
23035841 295 15357698583188075653
232437 2 18410855460128616522
23521765 1 18335421270176359526
246663 6 18411416211058470470
28498 318 18413108390220021942
33684 2 18413389843310413378
42788 4 18410573989446528877
4325135 7 18410293610024063111
67123 10 18410855447248560670
8209 1 18410856559639809070

> <PUBCHEM_SHAPE_MULTIPOLES>
326.37
28.55
1.03
0.6
0.01
0.21
0
-3.91
0.32
-0.03
0
0
-0.01
-0.09

> <PUBCHEM_SHAPE_SELFOVERLAP>
605.784

> <PUBCHEM_SHAPE_VOLUME>
205

> <PUBCHEM_COORDINATE_TYPE>
2
5
10

$$$$

