4062
  -OEChem-06251223513D

 40 41  0     1  0  0  0  0  0999 V2000
   -0.4782    0.3485    1.5770 O   0  0  0  0  0  0  0  0  0  0  0  0
   -2.8530    0.8984    0.4377 N   0  0  2  0  0  0  0  0  0  0  0  0
    0.4549   -0.0892   -0.5383 N   0  0  0  0  0  0  0  0  0  0  0  0
   -1.9120    0.0247   -0.2874 C   0  0  2  0  0  0  0  0  0  0  0  0
   -2.3428   -1.4477   -0.2403 C   0  0  0  0  0  0  0  0  0  0  0  0
   -3.7660   -1.6334   -0.7478 C   0  0  0  0  0  0  0  0  0  0  0  0
   -4.7100   -0.6993   -0.0048 C   0  0  0  0  0  0  0  0  0  0  0  0
   -4.2234    0.7468   -0.0837 C   0  0  0  0  0  0  0  0  0  0  0  0
   -0.5705    0.1157    0.3761 C   0  0  0  0  0  0  0  0  0  0  0  0
   -2.4656    2.3124    0.3543 C   0  0  0  0  0  0  0  0  0  0  0  0
    1.8476   -0.0793   -0.2870 C   0  0  0  0  0  0  0  0  0  0  0  0
    2.5510    1.1114   -0.3939 C   0  0  0  0  0  0  0  0  0  0  0  0
    2.4858   -1.2604    0.0613 C   0  0  0  0  0  0  0  0  0  0  0  0
    3.9238    1.1211   -0.1473 C   0  0  0  0  0  0  0  0  0  0  0  0
    3.8587   -1.2506    0.3080 C   0  0  0  0  0  0  0  0  0  0  0  0
    1.8790    2.3927   -0.7689 C   0  0  0  0  0  0  0  0  0  0  0  0
    1.7432   -2.5518    0.1811 C   0  0  0  0  0  0  0  0  0  0  0  0
    4.5776   -0.0598    0.2037 C   0  0  0  0  0  0  0  0  0  0  0  0
   -1.8418    0.3486   -1.3351 H   0  0  0  0  0  0  0  0  0  0  0  0
   -2.2737   -1.8313    0.7871 H   0  0  0  0  0  0  0  0  0  0  0  0
   -1.6614   -2.0622   -0.8417 H   0  0  0  0  0  0  0  0  0  0  0  0
   -4.0814   -2.6737   -0.6124 H   0  0  0  0  0  0  0  0  0  0  0  0
   -3.8049   -1.4206   -1.8231 H   0  0  0  0  0  0  0  0  0  0  0  0
   -5.7164   -0.7748   -0.4318 H   0  0  0  0  0  0  0  0  0  0  0  0
   -4.7835   -1.0077    1.0458 H   0  0  0  0  0  0  0  0  0  0  0  0
   -4.2824    1.0938   -1.1241 H   0  0  0  0  0  0  0  0  0  0  0  0
   -4.9117    1.3666    0.5043 H   0  0  0  0  0  0  0  0  0  0  0  0
   -2.4204    2.6633   -0.6834 H   0  0  0  0  0  0  0  0  0  0  0  0
   -1.4969    2.5097    0.8228 H   0  0  0  0  0  0  0  0  0  0  0  0
   -3.1882    2.9368    0.8929 H   0  0  0  0  0  0  0  0  0  0  0  0
    0.2039   -0.4277   -1.4647 H   0  0  0  0  0  0  0  0  0  0  0  0
    4.4993    2.0399   -0.2231 H   0  0  0  0  0  0  0  0  0  0  0  0
    4.3842   -2.1613    0.5834 H   0  0  0  0  0  0  0  0  0  0  0  0
    1.1814    2.7009    0.0167 H   0  0  0  0  0  0  0  0  0  0  0  0
    2.6000    3.2058   -0.9074 H   0  0  0  0  0  0  0  0  0  0  0  0
    1.3349    2.2817   -1.7128 H   0  0  0  0  0  0  0  0  0  0  0  0
    1.0183   -2.5009    1.0001 H   0  0  0  0  0  0  0  0  0  0  0  0
    1.2188   -2.7828   -0.7522 H   0  0  0  0  0  0  0  0  0  0  0  0
    2.4155   -3.3913    0.3891 H   0  0  0  0  0  0  0  0  0  0  0  0
    5.6466   -0.0522    0.3962 H   0  0  0  0  0  0  0  0  0  0  0  0
  1  9  2  0  0  0  0
  2  4  1  0  0  0  0
  2  8  1  0  0  0  0
  2 10  1  0  0  0  0
  3  9  1  0  0  0  0
  3 11  1  0  0  0  0
  3 31  1  0  0  0  0
  4  5  1  0  0  0  0
  4  9  1  0  0  0  0
  4 19  1  0  0  0  0
  5  6  1  0  0  0  0
  5 20  1  0  0  0  0
  5 21  1  0  0  0  0
  6  7  1  0  0  0  0
  6 22  1  0  0  0  0
  6 23  1  0  0  0  0
  7  8  1  0  0  0  0
  7 24  1  0  0  0  0
  7 25  1  0  0  0  0
  8 26  1  0  0  0  0
  8 27  1  0  0  0  0
 10 28  1  0  0  0  0
 10 29  1  0  0  0  0
 10 30  1  0  0  0  0
 11 12  2  0  0  0  0
 11 13  1  0  0  0  0
 12 14  1  0  0  0  0
 12 16  1  0  0  0  0
 13 15  2  0  0  0  0
 13 17  1  0  0  0  0
 14 18  2  0  0  0  0
 14 32  1  0  0  0  0
 15 18  1  0  0  0  0
 15 33  1  0  0  0  0
 16 34  1  0  0  0  0
 16 35  1  0  0  0  0
 16 36  1  0  0  0  0
 17 37  1  0  0  0  0
 17 38  1  0  0  0  0
 17 39  1  0  0  0  0
 18 40  1  0  0  0  0
M  END
> <PUBCHEM_COMPOUND_CID>
4062

> <PUBCHEM_CONFORMER_RMSD>
0.6

> <PUBCHEM_CONFORMER_DIVERSEORDER>
2
26
6
22
21
27
3
25
18
28
9
17
5
23
4
8
14
24
19
11
7
10
13
20
1
12
15
16

> <PUBCHEM_MMFF94_PARTIAL_CHARGES>
19
1 -0.57
10 0.27
11 0.12
12 -0.14
13 -0.14
14 -0.15
15 -0.15
16 0.14
17 0.14
18 -0.15
2 -0.81
3 -0.55
31 0.37
32 0.15
33 0.15
4 0.33
40 0.15
8 0.27
9 0.57

> <PUBCHEM_EFFECTIVE_ROTOR_COUNT>
4.2

> <PUBCHEM_PHARMACOPHORE_FEATURES>
5
1 1 acceptor
1 2 cation
1 3 donor
6 11 12 13 14 15 18 rings
6 2 4 5 6 7 8 rings

> <PUBCHEM_HEAVY_ATOM_COUNT>
18

> <PUBCHEM_ATOM_DEF_STEREO_COUNT>
0

> <PUBCHEM_ATOM_UDEF_STEREO_COUNT>
1

> <PUBCHEM_BOND_DEF_STEREO_COUNT>
0

> <PUBCHEM_BOND_UDEF_STEREO_COUNT>
0

> <PUBCHEM_ISOTOPIC_ATOM_COUNT>
0

> <PUBCHEM_COMPONENT_COUNT>
1

> <PUBCHEM_CACTVS_TAUTO_COUNT>
2

> <PUBCHEM_CONFORMER_ID>
00000FDE00000002

> <PUBCHEM_MMFF94_ENERGY>
60.3317

> <PUBCHEM_FEATURE_SELFOVERLAP>
25.371

> <PUBCHEM_SHAPE_FINGERPRINT>
10616163 171 18335420123774208279
11370993 70 18413393120091262171
12107183 9 17689717879797462291
12236239 1 18186802474426511134
12251169 10 18410855481603018021
13167823 11 18410012143347383311
13760787 19 18333731316773426671
14178342 30 18265908040951247498
14251717 144 18342740702361706574
14289901 80 18409729581806958307
15196674 1 18410575093295250606
15442244 35 18267021854566742282
15536298 74 18335701667475215470
17349148 13 18131072614690851850
17492 89 18409728503929305735
18186145 218 17131839737603043949
18681886 176 18260834761552289554
19050596 39 18409165498119320527
200 152 18409169887575929583
20279233 1 16056879134680369858
20645477 70 18341895212005664438
21267235 1 18410002252111612150
21709351 56 18413394232782697780
221490 88 18270392781124227794
2255824 54 18272083868994353182
22646028 1 18408605850884973631
23402539 116 18409455782337810141
23402655 69 18341613749739535636
23557571 272 17604142717993542497
23559900 14 18335425676971028448
3082319 5 18410575072004991391
3545911 37 18410572898672574333
4214541 1 18410012173607157837
474 4 17988639636624917660
5104073 3 18410292523101854305
633830 44 17131832075328913325
69090 78 18272652341964792491
77779 3 18410292514606948847
7832392 63 18267583687802630716
9709674 26 18410848871823150151
9981440 41 17406832882572964064

> <PUBCHEM_SHAPE_MULTIPOLES>
354.6
9.32
2.33
0.84
2.33
0.16
-0.11
-0.79
0.28
-0.3
0.16
0.1
0.08
-0.91

> <PUBCHEM_SHAPE_SELFOVERLAP>
736.262

> <PUBCHEM_SHAPE_VOLUME>
203

> <PUBCHEM_COORDINATE_TYPE>
2
5
10

$$$$

