4075
  -OEChem-06251223523D

 18 18  0     0  0  0  0  0  0999 V2000
    1.3114   -2.0941   -0.1392 O   0  0  0  0  0  0  0  0  0  0  0  0
    1.9128    1.9352   -0.5015 O   0  0  0  0  0  0  0  0  0  0  0  0
    2.8286    0.1158    0.5070 O   0  0  0  0  0  0  0  0  0  0  0  0
   -2.9941    1.4185    0.1268 N   0  0  0  0  0  0  0  0  0  0  0  0
    0.4866    0.1530    0.0197 C   0  0  0  0  0  0  0  0  0  0  0  0
   -1.8993    0.5319    0.0587 C   0  0  0  0  0  0  0  0  0  0  0  0
   -0.5965    1.0297    0.0852 C   0  0  0  0  0  0  0  0  0  0  0  0
    0.2667   -1.2214   -0.0722 C   0  0  0  0  0  0  0  0  0  0  0  0
   -2.1192   -0.8423   -0.0332 C   0  0  0  0  0  0  0  0  0  0  0  0
   -1.0362   -1.7190   -0.0986 C   0  0  0  0  0  0  0  0  0  0  0  0
    1.8391    0.6926    0.0473 C   0  0  0  0  0  0  0  0  0  0  0  0
   -0.4444    2.1035    0.1703 H   0  0  0  0  0  0  0  0  0  0  0  0
   -3.1297   -1.2424   -0.0544 H   0  0  0  0  0  0  0  0  0  0  0  0
   -1.2223   -2.7873   -0.1702 H   0  0  0  0  0  0  0  0  0  0  0  0
   -3.9389    1.0585    0.1050 H   0  0  0  0  0  0  0  0  0  0  0  0
   -2.8356    2.4153    0.1906 H   0  0  0  0  0  0  0  0  0  0  0  0
    0.9647   -3.0008   -0.1988 H   0  0  0  0  0  0  0  0  0  0  0  0
    2.8268    2.2909   -0.4789 H   0  0  0  0  0  0  0  0  0  0  0  0
  1  8  1  0  0  0  0
  1 17  1  0  0  0  0
  2 11  1  0  0  0  0
  2 18  1  0  0  0  0
  3 11  2  0  0  0  0
  4  6  1  0  0  0  0
  4 15  1  0  0  0  0
  4 16  1  0  0  0  0
  5  7  1  0  0  0  0
  5  8  2  0  0  0  0
  5 11  1  0  0  0  0
  6  7  2  0  0  0  0
  6  9  1  0  0  0  0
  7 12  1  0  0  0  0
  8 10  1  0  0  0  0
  9 10  2  0  0  0  0
  9 13  1  0  0  0  0
 10 14  1  0  0  0  0
M  END
> <PUBCHEM_COMPOUND_CID>
4075

> <PUBCHEM_CONFORMER_RMSD>
0.4

> <PUBCHEM_CONFORMER_DIVERSEORDER>
1
3
2

> <PUBCHEM_MMFF94_PARTIAL_CHARGES>
18
1 -0.53
10 -0.15
11 0.63
12 0.15
13 0.15
14 0.15
15 0.4
16 0.4
17 0.45
18 0.5
2 -0.65
3 -0.57
4 -0.9
5 0.09
6 0.1
7 -0.15
8 0.08
9 -0.15

> <PUBCHEM_EFFECTIVE_ROTOR_COUNT>
1

> <PUBCHEM_PHARMACOPHORE_FEATURES>
7
1 1 donor
1 2 acceptor
1 3 acceptor
1 4 cation
1 4 donor
3 2 3 11 anion
6 5 6 7 8 9 10 rings

> <PUBCHEM_HEAVY_ATOM_COUNT>
11

> <PUBCHEM_ATOM_DEF_STEREO_COUNT>
0

> <PUBCHEM_ATOM_UDEF_STEREO_COUNT>
0

> <PUBCHEM_BOND_DEF_STEREO_COUNT>
0

> <PUBCHEM_BOND_UDEF_STEREO_COUNT>
0

> <PUBCHEM_ISOTOPIC_ATOM_COUNT>
0

> <PUBCHEM_COMPONENT_COUNT>
1

> <PUBCHEM_CACTVS_TAUTO_COUNT>
9

> <PUBCHEM_CONFORMER_ID>
00000FEB00000001

> <PUBCHEM_MMFF94_ENERGY>
40.8207

> <PUBCHEM_FEATURE_SELFOVERLAP>
35.578

> <PUBCHEM_SHAPE_FINGERPRINT>
12423570 1 14727159059572413838
13380535 76 18410580604055010243
14325111 11 18410293575495701312
16945 1 18337951186492344495
18185500 45 17186721611237254278
193761 8 18410008849339744759
21040471 1 18408603647477053953
23235685 24 18409737286883549353
23463225 33 18342464785246730874
23552423 10 18413106151925018582
23559900 14 18187354425649546492
241688 4 17401482044731813002
2748010 2 18337950207292652583
369184 2 17895477994791139296
5084963 1 18114738214193196898

> <PUBCHEM_SHAPE_MULTIPOLES>
203.79
3.56
2.03
0.62
0.07
0.42
0
-1.3
-0.22
0.01
0.17
0.06
-0.03
-0.18

> <PUBCHEM_SHAPE_SELFOVERLAP>
432.527

> <PUBCHEM_SHAPE_VOLUME>
113.7

> <PUBCHEM_COORDINATE_TYPE>
2
5
10

$$$$

