583056
  -OEChem-06241222443D

 28 28  0     0  0  0  0  0  0999 V2000
   -0.9524   -1.6122   -0.6349 O   0  0  0  0  0  0  0  0  0  0  0  0
    3.1672    0.0457   -1.3815 O   0  5  0  0  0  0  0  0  0  0  0  0
    3.9368    0.8117    0.5346 O   0  0  0  0  0  0  0  0  0  0  0  0
    3.0306    0.4396   -0.2183 N   0  3  0  0  0  0  0  0  0  0  0  0
   -0.6827    0.7574   -0.3368 C   0  0  0  0  0  0  0  0  0  0  0  0
   -1.4806   -0.3867   -0.3544 C   0  0  0  0  0  0  0  0  0  0  0  0
    0.7448    0.6825   -0.6176 C   0  0  0  0  0  0  0  0  0  0  0  0
   -1.2496    1.9985   -0.0470 C   0  0  0  0  0  0  0  0  0  0  0  0
   -2.8453   -0.2895   -0.0822 C   0  0  0  0  0  0  0  0  0  0  0  0
   -1.0733   -2.6145    0.3718 C   0  0  0  0  0  0  0  0  0  0  0  0
    1.7010    0.4669    0.3048 C   0  0  0  0  0  0  0  0  0  0  0  0
   -2.6142    2.0956    0.2251 C   0  0  0  0  0  0  0  0  0  0  0  0
   -3.4121    0.9516    0.2075 C   0  0  0  0  0  0  0  0  0  0  0  0
    0.0949   -3.5704    0.2589 C   0  0  0  0  0  0  0  0  0  0  0  0
    1.6349    0.2238    1.7697 C   0  0  0  0  0  0  0  0  0  0  0  0
    0.9702    0.8568   -1.6681 H   0  0  0  0  0  0  0  0  0  0  0  0
   -0.6423    2.9005   -0.0294 H   0  0  0  0  0  0  0  0  0  0  0  0
   -3.4822   -1.1696   -0.1008 H   0  0  0  0  0  0  0  0  0  0  0  0
   -1.0770   -2.1676    1.3739 H   0  0  0  0  0  0  0  0  0  0  0  0
   -2.0130   -3.1574    0.2232 H   0  0  0  0  0  0  0  0  0  0  0  0
   -3.0558    3.0619    0.4502 H   0  0  0  0  0  0  0  0  0  0  0  0
   -4.4750    1.0278    0.4173 H   0  0  0  0  0  0  0  0  0  0  0  0
    0.0271   -4.3615    1.0107 H   0  0  0  0  0  0  0  0  0  0  0  0
    0.1238   -4.0288   -0.7351 H   0  0  0  0  0  0  0  0  0  0  0  0
    1.0425   -3.0377    0.3910 H   0  0  0  0  0  0  0  0  0  0  0  0
    2.0792    1.0514    2.3331 H   0  0  0  0  0  0  0  0  0  0  0  0
    2.1481   -0.7054    2.0416 H   0  0  0  0  0  0  0  0  0  0  0  0
    0.5993    0.1248    2.1115 H   0  0  0  0  0  0  0  0  0  0  0  0
  1  6  1  0  0  0  0
  1 10  1  0  0  0  0
  2  4  1  0  0  0  0
  3  4  2  0  0  0  0
  4 11  1  0  0  0  0
  5  6  1  0  0  0  0
  5  7  1  0  0  0  0
  5  8  2  0  0  0  0
  6  9  2  0  0  0  0
  7 11  2  0  0  0  0
  7 16  1  0  0  0  0
  8 12  1  0  0  0  0
  8 17  1  0  0  0  0
  9 13  1  0  0  0  0
  9 18  1  0  0  0  0
 10 14  1  0  0  0  0
 10 19  1  0  0  0  0
 10 20  1  0  0  0  0
 11 15  1  0  0  0  0
 12 13  2  0  0  0  0
 12 21  1  0  0  0  0
 13 22  1  0  0  0  0
 14 23  1  0  0  0  0
 14 24  1  0  0  0  0
 14 25  1  0  0  0  0
 15 26  1  0  0  0  0
 15 27  1  0  0  0  0
 15 28  1  0  0  0  0
M  CHG  2   2  -1   4   1
M  END
> <PUBCHEM_COMPOUND_CID>
583056

> <PUBCHEM_CONFORMER_RMSD>
0.6

> <PUBCHEM_CONFORMER_DIVERSEORDER>
1
21
3
16
9
2
15
17
14
13
22
20
4
10
18
11
12
19
5
7
8
6

> <PUBCHEM_MMFF94_PARTIAL_CHARGES>
19
1 -0.36
10 0.28
11 0.07
12 -0.15
13 -0.15
15 0.14
16 0.15
17 0.15
18 0.15
2 -0.52
21 0.15
22 0.15
3 -0.52
4 0.84
5 0.03
6 0.08
7 -0.18
8 -0.15
9 -0.15

> <PUBCHEM_EFFECTIVE_ROTOR_COUNT>
4

> <PUBCHEM_PHARMACOPHORE_FEATURES>
5
1 1 acceptor
1 2 acceptor
1 2 anion
1 3 acceptor
6 5 6 8 9 12 13 rings

> <PUBCHEM_HEAVY_ATOM_COUNT>
15

> <PUBCHEM_ATOM_DEF_STEREO_COUNT>
0

> <PUBCHEM_ATOM_UDEF_STEREO_COUNT>
0

> <PUBCHEM_BOND_DEF_STEREO_COUNT>
0

> <PUBCHEM_BOND_UDEF_STEREO_COUNT>
1

> <PUBCHEM_ISOTOPIC_ATOM_COUNT>
0

> <PUBCHEM_COMPONENT_COUNT>
1

> <PUBCHEM_CACTVS_TAUTO_COUNT>
1

> <PUBCHEM_CONFORMER_ID>
0008E59000000001

> <PUBCHEM_MMFF94_ENERGY>
49.4943

> <PUBCHEM_FEATURE_SELFOVERLAP>
25.451

> <PUBCHEM_SHAPE_FINGERPRINT>
12173636 292 18411421725796946668
12553582 1 17474378085237850198
13538477 17 18130511825100724936
14993402 34 18344148085724548349
15279307 12 18131078116834361938
15279308 132 18334296456938467000
15309172 13 18412259566868936433
15375462 175 18411982463915472163
15775835 57 18261393398846901273
16752209 62 18269849622759940543
16945 1 18410864252300957953
20028762 73 17899685762248318119
20510252 161 18333166159280895809
20645476 183 18059282197641379798
20871998 184 18189048694782461943
21501502 16 17903359548159611257
23402539 116 18261966141578802919
23419403 2 17034097655035931719
23526113 38 17676481753049135218
23557571 272 18047181961168217228
23559900 14 18260827103931562348
257057 1 17400649220672338831
2748010 2 16466162773444166831
305870 269 18266740375506112901
43471831 8 18341050821661981219
7364860 26 17904483252926637591
77492 1 17775286058085486236
81228 2 18119260462769091547
81539 233 18128818732324417157

> <PUBCHEM_SHAPE_MULTIPOLES>
286.1
5.17
2.95
1.02
2.49
3.65
-0.21
-2.82
-0.05
-0.95
-0.29
0.72
-0.07
-0.09

> <PUBCHEM_SHAPE_SELFOVERLAP>
588.847

> <PUBCHEM_SHAPE_VOLUME>
165.6

> <PUBCHEM_COORDINATE_TYPE>
2
5
10

$$$$

