12255
  -OEChem-06261206433D

 14 13  0     0  0  0  0  0  0999 V2000
    1.1684   -1.5536    0.0025 S   0  0  0  0  0  0  0  0  0  0  0  0
   -0.2719    0.6148   -0.0048 N   0  0  0  0  0  0  0  0  0  0  0  0
    2.1247    0.9026    0.0026 N   0  0  0  0  0  0  0  0  0  0  0  0
   -1.3042   -0.4145   -0.0069 C   0  0  0  0  0  0  0  0  0  0  0  0
   -2.6656    0.2500    0.0069 C   0  0  0  0  0  0  0  0  0  0  0  0
    0.9486    0.2007   -0.0003 C   0  0  0  0  0  0  0  0  0  0  0  0
   -1.2787   -1.0267   -0.9168 H   0  0  0  0  0  0  0  0  0  0  0  0
   -1.2666   -1.0437    0.8913 H   0  0  0  0  0  0  0  0  0  0  0  0
   -3.4620   -0.5007    0.0051 H   0  0  0  0  0  0  0  0  0  0  0  0
   -2.7865    0.8765    0.8971 H   0  0  0  0  0  0  0  0  0  0  0  0
   -2.7970    0.8920   -0.8707 H   0  0  0  0  0  0  0  0  0  0  0  0
    2.1324    1.9167    0.0011 H   0  0  0  0  0  0  0  0  0  0  0  0
    3.0211    0.4283    0.0056 H   0  0  0  0  0  0  0  0  0  0  0  0
    0.8008   -1.7715   -1.2687 H   0  0  0  0  0  0  0  0  0  0  0  0
  1  6  1  0  0  0  0
  1 14  1  0  0  0  0
  2  4  1  0  0  0  0
  2  6  2  0  0  0  0
  3  6  1  0  0  0  0
  3 12  1  0  0  0  0
  3 13  1  0  0  0  0
  4  5  1  0  0  0  0
  4  7  1  0  0  0  0
  4  8  1  0  0  0  0
  5  9  1  0  0  0  0
  5 10  1  0  0  0  0
  5 11  1  0  0  0  0
M  END
> <PUBCHEM_COMPOUND_CID>
12255

> <PUBCHEM_CONFORMER_RMSD>
0.4

> <PUBCHEM_CONFORMER_DIVERSEORDER>
1

> <PUBCHEM_MMFF94_PARTIAL_CHARGES>
8
1 -0.32
12 0.4
13 0.4
14 0.18
2 -0.7
3 -0.85
4 0.25
6 0.64

> <PUBCHEM_EFFECTIVE_ROTOR_COUNT>
1

> <PUBCHEM_PHARMACOPHORE_FEATURES>
3
1 3 donor
3 1 3 6 anion
3 2 3 6 cation

> <PUBCHEM_HEAVY_ATOM_COUNT>
6

> <PUBCHEM_ATOM_DEF_STEREO_COUNT>
0

> <PUBCHEM_ATOM_UDEF_STEREO_COUNT>
0

> <PUBCHEM_BOND_DEF_STEREO_COUNT>
0

> <PUBCHEM_BOND_UDEF_STEREO_COUNT>
0

> <PUBCHEM_ISOTOPIC_ATOM_COUNT>
0

> <PUBCHEM_COMPONENT_COUNT>
1

> <PUBCHEM_CACTVS_TAUTO_COUNT>
3

> <PUBCHEM_CONFORMER_ID>
00002FDF00000001

> <PUBCHEM_MMFF94_ENERGY>
20.4801

> <PUBCHEM_FEATURE_SELFOVERLAP>
15.223

> <PUBCHEM_SHAPE_FINGERPRINT>
139733 1 9222357737404779554
14390081 3 18187649072304458161
20096714 4 18335983073399873576
21040471 1 18266741281622847558
23552333 60 18261108629392839475
23552449 11 18199197350088855154
29004967 10 18201714059343111257
5460574 1 9295296036293768225

> <PUBCHEM_SHAPE_MULTIPOLES>
117.36
3.21
1.29
0.6
1.76
0.39
0
-0.33
0.01
-0.83
0
0
0.05
0

> <PUBCHEM_SHAPE_SELFOVERLAP>
200.452

> <PUBCHEM_SHAPE_VOLUME>
80.7

> <PUBCHEM_COORDINATE_TYPE>
2
5
10

$$$$

