11658
  -OEChem-06261205573D

 11 10  0     0  0  0  0  0  0999 V2000
   -1.6133    1.0099    0.0001 Br  0  0  0  0  0  0  0  0  0  0  0  0
    1.6130    1.0103    0.0001 Br  0  0  0  0  0  0  0  0  0  0  0  0
   -0.0001   -0.1064    0.0000 C   0  0  0  0  0  0  0  0  0  0  0  0
    0.0001   -0.9570    1.2624 C   0  0  0  0  0  0  0  0  0  0  0  0
    0.0002   -0.9567   -1.2626 C   0  0  0  0  0  0  0  0  0  0  0  0
    0.0001   -0.3402    2.1692 H   0  0  0  0  0  0  0  0  0  0  0  0
   -0.8832   -1.6046    1.3081 H   0  0  0  0  0  0  0  0  0  0  0  0
    0.8838   -1.6044    1.3081 H   0  0  0  0  0  0  0  0  0  0  0  0
    0.8838   -1.6040   -1.3082 H   0  0  0  0  0  0  0  0  0  0  0  0
    0.0002   -0.3399   -2.1693 H   0  0  0  0  0  0  0  0  0  0  0  0
   -0.8832   -1.6044   -1.3085 H   0  0  0  0  0  0  0  0  0  0  0  0
  1  3  1  0  0  0  0
  2  3  1  0  0  0  0
  3  4  1  0  0  0  0
  3  5  1  0  0  0  0
  4  6  1  0  0  0  0
  4  7  1  0  0  0  0
  4  8  1  0  0  0  0
  5  9  1  0  0  0  0
  5 10  1  0  0  0  0
  5 11  1  0  0  0  0
M  END
> <PUBCHEM_COMPOUND_CID>
11658

> <PUBCHEM_CONFORMER_RMSD>
0.4

> <PUBCHEM_CONFORMER_DIVERSEORDER>
1

> <PUBCHEM_MMFF94_PARTIAL_CHARGES>
3
1 -0.23
2 -0.23
3 0.46

> <PUBCHEM_EFFECTIVE_ROTOR_COUNT>
0

> <PUBCHEM_PHARMACOPHORE_FEATURES>
3
1 1 hydrophobe
1 2 hydrophobe
5 1 2 3 4 5 hydrophobe

> <PUBCHEM_HEAVY_ATOM_COUNT>
5

> <PUBCHEM_ATOM_DEF_STEREO_COUNT>
0

> <PUBCHEM_ATOM_UDEF_STEREO_COUNT>
0

> <PUBCHEM_BOND_DEF_STEREO_COUNT>
0

> <PUBCHEM_BOND_UDEF_STEREO_COUNT>
0

> <PUBCHEM_ISOTOPIC_ATOM_COUNT>
0

> <PUBCHEM_COMPONENT_COUNT>
1

> <PUBCHEM_CACTVS_TAUTO_COUNT>
1

> <PUBCHEM_CONFORMER_ID>
00002D8A00000001

> <PUBCHEM_MMFF94_ENERGY>
6.2807

> <PUBCHEM_FEATURE_SELFOVERLAP>
15.766

> <PUBCHEM_SHAPE_FINGERPRINT>
16714656 1 17752212686354166685
20096714 4 18410579504237563808
5943 1 8671814089049158051

> <PUBCHEM_SHAPE_MULTIPOLES>
114.78
1.87
1.46
1.24
0
0.06
0
1.14
0
0
0
0
-0.56
0

> <PUBCHEM_SHAPE_SELFOVERLAP>
174.769

> <PUBCHEM_SHAPE_VOLUME>
87.2

> <PUBCHEM_COORDINATE_TYPE>
2
5
10

$$$$

