17396464
  -OEChem-06241222563D

 42 43  0     0  0  0  0  0  0999 V2000
    3.7255   -1.9225   -0.8019 F   0  0  0  0  0  0  0  0  0  0  0  0
    5.7955   -2.4282   -0.3170 F   0  0  0  0  0  0  0  0  0  0  0  0
    5.3919   -1.0222   -1.9405 F   0  0  0  0  0  0  0  0  0  0  0  0
   -2.0675   -2.6402    0.9690 O   0  0  0  0  0  0  0  0  0  0  0  0
    5.0513   -0.3670    0.2242 O   0  0  0  0  0  0  0  0  0  0  0  0
   -5.9305   -0.9753   -0.3649 O   0  0  0  0  0  0  0  0  0  0  0  0
   -1.0440    2.5013   -1.4817 O   0  0  0  0  0  0  0  0  0  0  0  0
   -3.6259   -0.8379   -0.6400 N   0  0  0  0  0  0  0  0  0  0  0  0
   -0.7667    2.0737    0.8076 N   0  0  0  0  0  0  0  0  0  0  0  0
   -2.4864   -0.0806   -0.6519 N   0  0  0  0  0  0  0  0  0  0  0  0
   -3.5088   -2.2604   -0.9117 C   0  0  0  0  0  0  0  0  0  0  0  0
    0.4518    2.8168    1.0322 C   0  0  0  0  0  0  0  0  0  0  0  0
    1.6734    1.9710    0.8170 C   0  0  0  0  0  0  0  0  0  0  0  0
   -2.6197    1.1775   -0.4074 C   0  0  0  0  0  0  0  0  0  0  0  0
   -3.2844   -3.0548    0.3620 C   0  0  0  0  0  0  0  0  0  0  0  0
   -4.8889   -0.3197   -0.3822 C   0  0  0  0  0  0  0  0  0  0  0  0
   -1.3801    1.9971   -0.4215 C   0  0  0  0  0  0  0  0  0  0  0  0
    2.2595    1.8999   -0.4467 C   0  0  0  0  0  0  0  0  0  0  0  0
    2.2225    1.2563    1.8816 C   0  0  0  0  0  0  0  0  0  0  0  0
   -3.8672    1.8861   -0.1168 C   0  0  0  0  0  0  0  0  0  0  0  0
   -4.9657    1.1349   -0.1097 C   0  0  0  0  0  0  0  0  0  0  0  0
    3.3945    1.1141   -0.6460 C   0  0  0  0  0  0  0  0  0  0  0  0
    3.3575    0.4705    1.6825 C   0  0  0  0  0  0  0  0  0  0  0  0
    3.9435    0.3993    0.4187 C   0  0  0  0  0  0  0  0  0  0  0  0
   -1.8100   -3.3612    2.1661 C   0  0  0  0  0  0  0  0  0  0  0  0
    4.9791   -1.4285   -0.7212 C   0  0  0  0  0  0  0  0  0  0  0  0
   -4.4133   -2.6170   -1.4163 H   0  0  0  0  0  0  0  0  0  0  0  0
   -2.6653   -2.3977   -1.5987 H   0  0  0  0  0  0  0  0  0  0  0  0
    0.4220    3.1971    2.0595 H   0  0  0  0  0  0  0  0  0  0  0  0
    0.4716    3.6899    0.3690 H   0  0  0  0  0  0  0  0  0  0  0  0
   -4.1136   -2.8969    1.0619 H   0  0  0  0  0  0  0  0  0  0  0  0
   -3.2265   -4.1222    0.1200 H   0  0  0  0  0  0  0  0  0  0  0  0
   -1.1722    1.5779    1.5963 H   0  0  0  0  0  0  0  0  0  0  0  0
    1.8445    2.4542   -1.2841 H   0  0  0  0  0  0  0  0  0  0  0  0
    1.7741    1.3020    2.8705 H   0  0  0  0  0  0  0  0  0  0  0  0
   -3.8765    2.9499    0.0762 H   0  0  0  0  0  0  0  0  0  0  0  0
   -5.9395    1.5648    0.0946 H   0  0  0  0  0  0  0  0  0  0  0  0
    3.8451    1.0736   -1.6338 H   0  0  0  0  0  0  0  0  0  0  0  0
    3.7804   -0.0847    2.5153 H   0  0  0  0  0  0  0  0  0  0  0  0
   -0.8664   -3.0035    2.5866 H   0  0  0  0  0  0  0  0  0  0  0  0
   -1.7158   -4.4312    1.9571 H   0  0  0  0  0  0  0  0  0  0  0  0
   -2.6057   -3.1879    2.8970 H   0  0  0  0  0  0  0  0  0  0  0  0
  1 26  1  0  0  0  0
  2 26  1  0  0  0  0
  3 26  1  0  0  0  0
  4 15  1  0  0  0  0
  4 25  1  0  0  0  0
  5 24  1  0  0  0  0
  5 26  1  0  0  0  0
  6 16  2  0  0  0  0
  7 17  2  0  0  0  0
  8 10  1  0  0  0  0
  8 11  1  0  0  0  0
  8 16  1  0  0  0  0
  9 12  1  0  0  0  0
  9 17  1  0  0  0  0
  9 33  1  0  0  0  0
 10 14  2  0  0  0  0
 11 15  1  0  0  0  0
 11 27  1  0  0  0  0
 11 28  1  0  0  0  0
 12 13  1  0  0  0  0
 12 29  1  0  0  0  0
 12 30  1  0  0  0  0
 13 18  2  0  0  0  0
 13 19  1  0  0  0  0
 14 17  1  0  0  0  0
 14 20  1  0  0  0  0
 15 31  1  0  0  0  0
 15 32  1  0  0  0  0
 16 21  1  0  0  0  0
 18 22  1  0  0  0  0
 18 34  1  0  0  0  0
 19 23  2  0  0  0  0
 19 35  1  0  0  0  0
 20 21  2  0  0  0  0
 20 36  1  0  0  0  0
 21 37  1  0  0  0  0
 22 24  2  0  0  0  0
 22 38  1  0  0  0  0
 23 24  1  0  0  0  0
 23 39  1  0  0  0  0
 25 40  1  0  0  0  0
 25 41  1  0  0  0  0
 25 42  1  0  0  0  0
M  END
> <PUBCHEM_COMPOUND_CID>
17396464

> <PUBCHEM_CONFORMER_RMSD>
1

> <PUBCHEM_CONFORMER_DIVERSEORDER>
1
11
40
54
63
2
51
72
26
52
8
39
42
56
34
65
36
71
68
61
28
3
60
50
6
15
45
64
33
19
20
43
67
55
5
9
24
49
44
27
18
59
41
66
69
53
31
38
58
32
16
13
48
57
21
29
23
46
25
37
17
22
70
14
4
47
62
30
12
10
35
7

> <PUBCHEM_MMFF94_PARTIAL_CHARGES>
33
1 -0.34
10 -0.51
11 0.3
12 0.44
13 -0.14
14 0.44
15 0.28
16 0.62
17 0.63
18 -0.15
19 -0.15
2 -0.34
20 -0.14
21 -0.14
22 -0.15
23 -0.15
24 0.08
25 0.28
26 1.3
3 -0.34
33 0.37
34 0.15
35 0.15
36 0.15
37 0.15
38 0.15
39 0.15
4 -0.56
5 -0.36
6 -0.57
7 -0.57
8 -0.3
9 -0.73

> <PUBCHEM_EFFECTIVE_ROTOR_COUNT>
9

> <PUBCHEM_PHARMACOPHORE_FEATURES>
8
1 10 acceptor
1 4 acceptor
1 5 acceptor
1 6 acceptor
1 7 acceptor
1 9 donor
6 13 18 19 22 23 24 rings
6 8 10 14 16 20 21 rings

> <PUBCHEM_HEAVY_ATOM_COUNT>
26

> <PUBCHEM_ATOM_DEF_STEREO_COUNT>
0

> <PUBCHEM_ATOM_UDEF_STEREO_COUNT>
0

> <PUBCHEM_BOND_DEF_STEREO_COUNT>
0

> <PUBCHEM_BOND_UDEF_STEREO_COUNT>
0

> <PUBCHEM_ISOTOPIC_ATOM_COUNT>
0

> <PUBCHEM_COMPONENT_COUNT>
1

> <PUBCHEM_CACTVS_TAUTO_COUNT>
2

> <PUBCHEM_CONFORMER_ID>
010972F000000001

> <PUBCHEM_MMFF94_ENERGY>
60.6975

> <PUBCHEM_FEATURE_SELFOVERLAP>
40.596

> <PUBCHEM_SHAPE_FINGERPRINT>
10730089 88 18412260618988231123
11796584 16 18191030199683363592
12596602 18 15141532320243933190
13402501 40 18333732442023346310
13911882 115 18261116210706527064
14251740 79 18338231682052858338
14251751 18 18410012178060510964
14251757 5 18343296002830713090
14420673 8 18334292110879923855
14840074 17 16702300165810138711
14866123 147 18042962280327893841
14910302 57 18410866468224715820
15322534 239 18342174492312343275
15352361 1 18333171678234509308
15537594 2 17988927816182838249
17627616 140 17984707984823564691
1813 80 17917438609474512109
19315092 285 16229159241358229375
20403669 9 18186799201424100598
23379529 103 18410007719900028246
23559900 14 18408609127903439653
3004659 81 18413672426652696892
316301 35 18261401065732594786
44062 13 18408887321772607751
463206 1 18412825802345498570
474144 1 17558849509182408746
508706 21 18413394228456497191
5365585 94 18410849954202024314
574716 61 16629954422067889814
6823239 73 18335426763872132698
9709674 26 18337678486191867945
9862886 166 18410293640653349386

> <PUBCHEM_SHAPE_MULTIPOLES>
474.83
13
3.92
1.52
4.52
2.12
-0.47
7.04
3.74
-1.5
-0.87
1.07
0.47
2.01

> <PUBCHEM_SHAPE_SELFOVERLAP>
996.751

> <PUBCHEM_SHAPE_VOLUME>
267.2

> <PUBCHEM_COORDINATE_TYPE>
2
5
10

$$$$

