47205774
  -OEChem-06241223003D

 42 42  0     0  0  0  0  0  0999 V2000
   -0.3287   -3.6609    0.3684 O   0  0  0  0  0  0  0  0  0  0  0  0
   -0.3131    2.4224    1.5101 O   0  0  0  0  0  0  0  0  0  0  0  0
    1.7441    0.2666   -1.1169 O   0  0  0  0  0  0  0  0  0  0  0  0
   -1.6338    2.5293   -0.3994 N   0  0  0  0  0  0  0  0  0  0  0  0
    1.9316    2.3296   -0.0691 N   0  0  0  0  0  0  0  0  0  0  0  0
   -3.5335    0.9474   -0.3559 C   0  0  0  0  0  0  0  0  0  0  0  0
   -2.8992    2.2101    0.2220 C   0  0  0  0  0  0  0  0  0  0  0  0
   -2.6792   -0.2814   -0.1633 C   0  0  0  0  0  0  0  0  0  0  0  0
    3.6380    0.6836    0.3324 C   0  0  0  0  0  0  0  0  0  0  0  0
    0.7259    2.9044   -0.6170 C   0  0  0  0  0  0  0  0  0  0  0  0
    4.1062   -0.7327    0.0116 C   0  0  0  0  0  0  0  0  0  0  0  0
   -0.4397    2.6090    0.3025 C   0  0  0  0  0  0  0  0  0  0  0  0
   -1.7410   -0.6380   -1.1320 C   0  0  0  0  0  0  0  0  0  0  0  0
   -2.8275   -1.0606    0.9841 C   0  0  0  0  0  0  0  0  0  0  0  0
    2.3415    1.0394   -0.3725 C   0  0  0  0  0  0  0  0  0  0  0  0
   -0.9514   -1.7739   -0.9535 C   0  0  0  0  0  0  0  0  0  0  0  0
   -2.0380   -2.1965    1.1627 C   0  0  0  0  0  0  0  0  0  0  0  0
   -1.0999   -2.5531    0.1938 C   0  0  0  0  0  0  0  0  0  0  0  0
    5.3871   -1.0782    0.7533 C   0  0  0  0  0  0  0  0  0  0  0  0
    0.6108   -3.9666   -0.6611 C   0  0  0  0  0  0  0  0  0  0  0  0
   -3.7280    1.0847   -1.4278 H   0  0  0  0  0  0  0  0  0  0  0  0
   -4.5154    0.7871    0.1069 H   0  0  0  0  0  0  0  0  0  0  0  0
   -3.5613    3.0644    0.0448 H   0  0  0  0  0  0  0  0  0  0  0  0
   -2.7678    2.1117    1.3051 H   0  0  0  0  0  0  0  0  0  0  0  0
   -1.6411    2.7392   -1.3933 H   0  0  0  0  0  0  0  0  0  0  0  0
    4.4035    1.4087    0.0311 H   0  0  0  0  0  0  0  0  0  0  0  0
    3.4791    0.7898    1.4123 H   0  0  0  0  0  0  0  0  0  0  0  0
    0.8616    3.9880   -0.6788 H   0  0  0  0  0  0  0  0  0  0  0  0
    0.5516    2.5006   -1.6193 H   0  0  0  0  0  0  0  0  0  0  0  0
    3.3267   -1.4549    0.2829 H   0  0  0  0  0  0  0  0  0  0  0  0
    4.2718   -0.8363   -1.0674 H   0  0  0  0  0  0  0  0  0  0  0  0
   -1.6163   -0.0399   -2.0309 H   0  0  0  0  0  0  0  0  0  0  0  0
   -3.5534   -0.7916    1.7468 H   0  0  0  0  0  0  0  0  0  0  0  0
    2.4824    2.8926    0.5726 H   0  0  0  0  0  0  0  0  0  0  0  0
   -0.2433   -1.9933   -1.7453 H   0  0  0  0  0  0  0  0  0  0  0  0
   -2.1574   -2.7992    2.0589 H   0  0  0  0  0  0  0  0  0  0  0  0
    5.2412   -1.0197    1.8366 H   0  0  0  0  0  0  0  0  0  0  0  0
    5.7043   -2.0965    0.5079 H   0  0  0  0  0  0  0  0  0  0  0  0
    6.1964   -0.3944    0.4777 H   0  0  0  0  0  0  0  0  0  0  0  0
    1.1384   -4.8766   -0.3574 H   0  0  0  0  0  0  0  0  0  0  0  0
    1.3653   -3.1791   -0.7641 H   0  0  0  0  0  0  0  0  0  0  0  0
    0.1103   -4.1884   -1.6097 H   0  0  0  0  0  0  0  0  0  0  0  0
  1 18  1  0  0  0  0
  1 20  1  0  0  0  0
  2 12  2  0  0  0  0
  3 15  2  0  0  0  0
  4  7  1  0  0  0  0
  4 12  1  0  0  0  0
  4 25  1  0  0  0  0
  5 10  1  0  0  0  0
  5 15  1  0  0  0  0
  5 34  1  0  0  0  0
  6  7  1  0  0  0  0
  6  8  1  0  0  0  0
  6 21  1  0  0  0  0
  6 22  1  0  0  0  0
  7 23  1  0  0  0  0
  7 24  1  0  0  0  0
  8 13  2  0  0  0  0
  8 14  1  0  0  0  0
  9 11  1  0  0  0  0
  9 15  1  0  0  0  0
  9 26  1  0  0  0  0
  9 27  1  0  0  0  0
 10 12  1  0  0  0  0
 10 28  1  0  0  0  0
 10 29  1  0  0  0  0
 11 19  1  0  0  0  0
 11 30  1  0  0  0  0
 11 31  1  0  0  0  0
 13 16  1  0  0  0  0
 13 32  1  0  0  0  0
 14 17  2  0  0  0  0
 14 33  1  0  0  0  0
 16 18  2  0  0  0  0
 16 35  1  0  0  0  0
 17 18  1  0  0  0  0
 17 36  1  0  0  0  0
 19 37  1  0  0  0  0
 19 38  1  0  0  0  0
 19 39  1  0  0  0  0
 20 40  1  0  0  0  0
 20 41  1  0  0  0  0
 20 42  1  0  0  0  0
M  END
> <PUBCHEM_COMPOUND_CID>
47205774

> <PUBCHEM_CONFORMER_RMSD>
1

> <PUBCHEM_CONFORMER_DIVERSEORDER>
1
127
55
65
61
25
75
53
106
56
78
113
10
99
103
26
120
6
108
21
30
77
31
69
16
24
5
88
70
76
125
51
72
37
50
54
112
123
18
93
38
104
86
98
79
12
49
124
67
34
100
57
27
29
71
40
66
138
83
129
90
44
97
114
23
132
63
8
85
128
126
17
13
43
121
91
60
3
137
62
110
46
111
42
2
89
116
92
45
33
135
9
74
96
102
115
36
32
4
84
105
47
94
14
19
80
52
20
87
39
48
109
119
22
81
59
41
28
131
107
122
136
117
95
133
11
134
15
58
82
118
35
130
73
64
68
7
101

> <PUBCHEM_MMFF94_PARTIAL_CHARGES>
24
1 -0.36
10 0.36
12 0.57
13 -0.15
14 -0.15
15 0.57
16 -0.15
17 -0.15
18 0.08
2 -0.57
20 0.28
25 0.37
3 -0.57
32 0.15
33 0.15
34 0.37
35 0.15
36 0.15
4 -0.73
5 -0.73
6 0.14
7 0.3
8 -0.14
9 0.06

> <PUBCHEM_EFFECTIVE_ROTOR_COUNT>
10

> <PUBCHEM_PHARMACOPHORE_FEATURES>
7
1 1 acceptor
1 19 hydrophobe
1 2 acceptor
1 3 acceptor
1 4 donor
1 5 donor
6 8 13 14 16 17 18 rings

> <PUBCHEM_HEAVY_ATOM_COUNT>
20

> <PUBCHEM_ATOM_DEF_STEREO_COUNT>
0

> <PUBCHEM_ATOM_UDEF_STEREO_COUNT>
0

> <PUBCHEM_BOND_DEF_STEREO_COUNT>
0

> <PUBCHEM_BOND_UDEF_STEREO_COUNT>
0

> <PUBCHEM_ISOTOPIC_ATOM_COUNT>
0

> <PUBCHEM_COMPONENT_COUNT>
1

> <PUBCHEM_CACTVS_TAUTO_COUNT>
4

> <PUBCHEM_CONFORMER_ID>
02D04D8E00000001

> <PUBCHEM_MMFF94_ENERGY>
39.778

> <PUBCHEM_FEATURE_SELFOVERLAP>
35.52

> <PUBCHEM_SHAPE_FINGERPRINT>
10759866 29 18057591084877137756
107951 10 17418096555029142281
12553582 1 17762332513950696030
12633257 1 18119223100759218451
13122387 1 16969704975651037018
13140716 1 18335975407321710961
14251705 54 16537077309212449111
14251757 5 18267562668918382990
14647877 51 17615973644283541622
14916288 52 18195243304654236286
15006816 218 18193838377759714486
17859628 97 18340488971003663121
17977361 122 18340495568120804928
19930381 70 18338797814894193279
20645477 70 15097348115197255471
20905425 154 17830450948800306093
23419403 2 5831415593795872125
23728640 28 18409453587171710851
3084891 72 18409171042843075958
598444 67 18267010675246944797
6138700 20 18339367477949498565
6443956 14 16249975010843631655
7097593 13 17979071583592897838

> <PUBCHEM_SHAPE_MULTIPOLES>
384.02
6.93
4.82
1.09
9.34
1.94
-0.09
0.26
-1.34
-1
-0.02
-0.23
0.15
0.07

> <PUBCHEM_SHAPE_SELFOVERLAP>
768.716

> <PUBCHEM_SHAPE_VOLUME>
225.9

> <PUBCHEM_COORDINATE_TYPE>
2
5
10

$$$$

