10841
  -OEChem-06261205012D

 28 29  0     0  0  0  0  0  0999 V2000
    2.8660    0.8450    0.0000 N   0  0  0  0  0  0  0  0  0  0  0  0
    2.8660   -3.1550    0.0000 N   0  0  0  0  0  0  0  0  0  0  0  0
    6.3301    2.8450    0.0000 N   0  0  0  0  0  0  0  0  0  0  0  0
    2.8660   -0.1550    0.0000 C   0  0  0  0  0  0  0  0  0  0  0  0
    3.7320    1.3450    0.0000 C   0  0  0  0  0  0  0  0  0  0  0  0
    4.5981    0.8450    0.0000 C   0  0  0  0  0  0  0  0  0  0  0  0
    2.0000   -0.6550    0.0000 C   0  0  0  0  0  0  0  0  0  0  0  0
    3.7320    2.3450    0.0000 C   0  0  0  0  0  0  0  0  0  0  0  0
    3.7320   -0.6550    0.0000 C   0  0  0  0  0  0  0  0  0  0  0  0
    5.4641    2.3450    0.0000 C   0  0  0  0  0  0  0  0  0  0  0  0
    2.8660   -2.1550    0.0000 C   0  0  0  0  0  0  0  0  0  0  0  0
    2.0000   -1.6550    0.0000 C   0  0  0  0  0  0  0  0  0  0  0  0
    5.4641    1.3450    0.0000 C   0  0  0  0  0  0  0  0  0  0  0  0
    3.7320   -1.6550    0.0000 C   0  0  0  0  0  0  0  0  0  0  0  0
    4.5981    2.8450    0.0000 C   0  0  0  0  0  0  0  0  0  0  0  0
    2.3291    1.1550    0.0000 H   0  0  0  0  0  0  0  0  0  0  0  0
    4.5981    0.2250    0.0000 H   0  0  0  0  0  0  0  0  0  0  0  0
    1.4631   -0.3450    0.0000 H   0  0  0  0  0  0  0  0  0  0  0  0
    3.1951    2.6550    0.0000 H   0  0  0  0  0  0  0  0  0  0  0  0
    4.2690   -0.3450    0.0000 H   0  0  0  0  0  0  0  0  0  0  0  0
    6.0010    1.0350    0.0000 H   0  0  0  0  0  0  0  0  0  0  0  0
    1.4631   -1.9650    0.0000 H   0  0  0  0  0  0  0  0  0  0  0  0
    4.2690   -1.9650    0.0000 H   0  0  0  0  0  0  0  0  0  0  0  0
    4.5981    3.4650    0.0000 H   0  0  0  0  0  0  0  0  0  0  0  0
    6.3301    3.4650    0.0000 H   0  0  0  0  0  0  0  0  0  0  0  0
    6.8671    2.5350    0.0000 H   0  0  0  0  0  0  0  0  0  0  0  0
    2.3291   -3.4650    0.0000 H   0  0  0  0  0  0  0  0  0  0  0  0
    3.4030   -3.4650    0.0000 H   0  0  0  0  0  0  0  0  0  0  0  0
  1  4  1  0  0  0  0
  1  5  1  0  0  0  0
  1 16  1  0  0  0  0
  2 11  1  0  0  0  0
  2 27  1  0  0  0  0
  2 28  1  0  0  0  0
  3 10  1  0  0  0  0
  3 25  1  0  0  0  0
  3 26  1  0  0  0  0
  4  7  2  0  0  0  0
  4  9  1  0  0  0  0
  5  6  2  0  0  0  0
  5  8  1  0  0  0  0
  6 13  1  0  0  0  0
  6 17  1  0  0  0  0
  7 12  1  0  0  0  0
  7 18  1  0  0  0  0
  8 15  2  0  0  0  0
  8 19  1  0  0  0  0
  9 14  2  0  0  0  0
  9 20  1  0  0  0  0
 10 13  2  0  0  0  0
 10 15  1  0  0  0  0
 11 12  2  0  0  0  0
 11 14  1  0  0  0  0
 12 22  1  0  0  0  0
 13 21  1  0  0  0  0
 14 23  1  0  0  0  0
 15 24  1  0  0  0  0
M  END
> <PUBCHEM_COMPOUND_CID>
10841

> <PUBCHEM_COMPOUND_CANONICALIZED>
1

> <PUBCHEM_CACTVS_COMPLEXITY>
159

> <PUBCHEM_CACTVS_HBOND_ACCEPTOR>
3

> <PUBCHEM_CACTVS_HBOND_DONOR>
3

> <PUBCHEM_CACTVS_ROTATABLE_BOND>
2

> <PUBCHEM_CACTVS_SUBSKEYS>
AAADccBzAAAAAAAAAAAAAAAAAAAAAAAAAAAwYAAAAAAAAAABQAAAHAAQAAAACAiBEAAwwILAAACAACRCQACCAAAhAgAIiAAAZIgIIGLAkZGEIAhgkADIyAcQAAAAAACAAAAAAAAAAQAAAAAAAAAAAAAAAA==

> <PUBCHEM_IUPAC_OPENEYE_NAME>
N4-(4-aminophenyl)benzene-1,4-diamine

> <PUBCHEM_IUPAC_CAS_NAME>
N4-(4-aminophenyl)benzene-1,4-diamine

> <PUBCHEM_IUPAC_NAME>
4-N-(4-aminophenyl)benzene-1,4-diamine

> <PUBCHEM_IUPAC_SYSTEMATIC_NAME>
N4-(4-aminophenyl)benzene-1,4-diamine

> <PUBCHEM_IUPAC_TRADITIONAL_NAME>
bis(4-aminophenyl)amine

> <PUBCHEM_IUPAC_INCHI>
InChI=1S/C12H13N3/c13-9-1-5-11(6-2-9)15-12-7-3-10(14)4-8-12/h1-8,15H,13-14H2

> <PUBCHEM_IUPAC_INCHIKEY>
QZHXKQKKEBXYRG-UHFFFAOYSA-N

> <PUBCHEM_XLOGP3_AA>
2.1

> <PUBCHEM_EXACT_MASS>
199.110947

> <PUBCHEM_MOLECULAR_FORMULA>
C12H13N3

> <PUBCHEM_MOLECULAR_WEIGHT>
199.25172

> <PUBCHEM_OPENEYE_CAN_SMILES>
C1=CC(=CC=C1N)NC2=CC=C(C=C2)N

> <PUBCHEM_OPENEYE_ISO_SMILES>
C1=CC(=CC=C1N)NC2=CC=C(C=C2)N

> <PUBCHEM_CACTVS_TPSA>
64.1

> <PUBCHEM_MONOISOTOPIC_WEIGHT>
199.110947

> <PUBCHEM_TOTAL_CHARGE>
0

> <PUBCHEM_HEAVY_ATOM_COUNT>
15

> <PUBCHEM_ATOM_DEF_STEREO_COUNT>
0

> <PUBCHEM_ATOM_UDEF_STEREO_COUNT>
0

> <PUBCHEM_BOND_DEF_STEREO_COUNT>
0

> <PUBCHEM_BOND_UDEF_STEREO_COUNT>
0

> <PUBCHEM_ISOTOPIC_ATOM_COUNT>
0

> <PUBCHEM_COMPONENT_COUNT>
1

> <PUBCHEM_CACTVS_TAUTO_COUNT>
1

> <PUBCHEM_COORDINATE_TYPE>
1
5
255

> <PUBCHEM_BONDANNOTATIONS>
10  13  8
10  15  8
11  12  8
11  14  8
4  7  8
4  9  8
5  6  8
5  8  8
6  13  8
7  12  8
8  15  8
9  14  8

$$$$

