9041
  -OEChem-06261203212D

 86 87  0     0  0  0  0  0  0999 V2000
   12.3923    4.7500    0.0000 O   0  0  0  0  0  0  0  0  0  0  0  0
    2.8660   -4.7500    0.0000 O   0  0  0  0  0  0  0  0  0  0  0  0
    8.9282   -0.2500    0.0000 O   0  0  0  0  0  0  0  0  0  0  0  0
    6.3301    0.2500    0.0000 O   0  0  0  0  0  0  0  0  0  0  0  0
    9.7942    3.2500    0.0000 N   0  3  0  0  0  0  0  0  0  0  0  0
    5.4641   -3.2500    0.0000 N   0  3  0  0  0  0  0  0  0  0  0  0
    8.0622    1.2500    0.0000 N   0  0  0  0  0  0  0  0  0  0  0  0
    7.1962   -1.2500    0.0000 N   0  0  0  0  0  0  0  0  0  0  0  0
    8.9282    2.7500    0.0000 C   0  0  0  0  0  0  0  0  0  0  0  0
    6.3301   -2.7500    0.0000 C   0  0  0  0  0  0  0  0  0  0  0  0
    4.5981   -3.7500    0.0000 C   0  0  0  0  0  0  0  0  0  0  0  0
   10.6603    3.7500    0.0000 C   0  0  0  0  0  0  0  0  0  0  0  0
    9.2942    4.1160    0.0000 C   0  0  0  0  0  0  0  0  0  0  0  0
   10.2942    2.3840    0.0000 C   0  0  0  0  0  0  0  0  0  0  0  0
    4.9641   -2.3840    0.0000 C   0  0  0  0  0  0  0  0  0  0  0  0
    5.9641   -4.1160    0.0000 C   0  0  0  0  0  0  0  0  0  0  0  0
    8.9282    1.7500    0.0000 C   0  0  0  0  0  0  0  0  0  0  0  0
    6.3301   -1.7500    0.0000 C   0  0  0  0  0  0  0  0  0  0  0  0
    4.5981   -4.7500    0.0000 C   0  0  0  0  0  0  0  0  0  0  0  0
   10.6603    4.7500    0.0000 C   0  0  0  0  0  0  0  0  0  0  0  0
    3.9641   -2.3840    0.0000 C   0  0  0  0  0  0  0  0  0  0  0  0
    6.9641   -4.1160    0.0000 C   0  0  0  0  0  0  0  0  0  0  0  0
   11.2942    2.3840    0.0000 C   0  0  0  0  0  0  0  0  0  0  0  0
    8.2942    4.1160    0.0000 C   0  0  0  0  0  0  0  0  0  0  0  0
    3.7320   -5.2500    0.0000 C   0  0  0  0  0  0  0  0  0  0  0  0
   11.5263    5.2500    0.0000 C   0  0  0  0  0  0  0  0  0  0  0  0
    9.7942    5.2500    0.0000 C   0  0  0  0  0  0  0  0  0  0  0  0
    5.4641   -5.2500    0.0000 C   0  0  0  0  0  0  0  0  0  0  0  0
    7.1962   -0.2500    0.0000 C   0  0  0  0  0  0  0  0  0  0  0  0
    8.0622    0.2500    0.0000 C   0  0  0  0  0  0  0  0  0  0  0  0
   11.5263    6.2500    0.0000 C   0  0  0  0  0  0  0  0  0  0  0  0
    3.7320   -6.2500    0.0000 C   0  0  0  0  0  0  0  0  0  0  0  0
    5.4641   -6.2500    0.0000 C   0  0  0  0  0  0  0  0  0  0  0  0
    9.7942    6.2500    0.0000 C   0  0  0  0  0  0  0  0  0  0  0  0
    4.5981   -6.7500    0.0000 C   0  0  0  0  0  0  0  0  0  0  0  0
   10.6603    6.7500    0.0000 C   0  0  0  0  0  0  0  0  0  0  0  0
   13.2583    5.2500    0.0000 C   0  0  0  0  0  0  0  0  0  0  0  0
    2.0000   -5.2500    0.0000 C   0  0  0  0  0  0  0  0  0  0  0  0
    8.7162    3.3326    0.0000 H   0  0  0  0  0  0  0  0  0  0  0  0
    8.3176    2.6423    0.0000 H   0  0  0  0  0  0  0  0  0  0  0  0
    6.5422   -3.3326    0.0000 H   0  0  0  0  0  0  0  0  0  0  0  0
    6.9407   -2.6423    0.0000 H   0  0  0  0  0  0  0  0  0  0  0  0
    4.3860   -3.1674    0.0000 H   0  0  0  0  0  0  0  0  0  0  0  0
    3.9875   -3.8577    0.0000 H   0  0  0  0  0  0  0  0  0  0  0  0
   10.8723    3.1674    0.0000 H   0  0  0  0  0  0  0  0  0  0  0  0
   11.2708    3.8577    0.0000 H   0  0  0  0  0  0  0  0  0  0  0  0
    9.8768    4.3281    0.0000 H   0  0  0  0  0  0  0  0  0  0  0  0
    9.1866    4.7266    0.0000 H   0  0  0  0  0  0  0  0  0  0  0  0
    9.7116    2.1719    0.0000 H   0  0  0  0  0  0  0  0  0  0  0  0
   10.4019    1.7734    0.0000 H   0  0  0  0  0  0  0  0  0  0  0  0
    5.5467   -2.1719    0.0000 H   0  0  0  0  0  0  0  0  0  0  0  0
    4.8564   -1.7734    0.0000 H   0  0  0  0  0  0  0  0  0  0  0  0
    5.3815   -4.3281    0.0000 H   0  0  0  0  0  0  0  0  0  0  0  0
    6.0718   -4.7266    0.0000 H   0  0  0  0  0  0  0  0  0  0  0  0
    9.1403    1.1674    0.0000 H   0  0  0  0  0  0  0  0  0  0  0  0
    9.5388    1.8577    0.0000 H   0  0  0  0  0  0  0  0  0  0  0  0
    6.1181   -1.1674    0.0000 H   0  0  0  0  0  0  0  0  0  0  0  0
    5.7196   -1.8577    0.0000 H   0  0  0  0  0  0  0  0  0  0  0  0
    3.9641   -1.7640    0.0000 H   0  0  0  0  0  0  0  0  0  0  0  0
    3.3441   -2.3840    0.0000 H   0  0  0  0  0  0  0  0  0  0  0  0
    3.9641   -3.0040    0.0000 H   0  0  0  0  0  0  0  0  0  0  0  0
    6.9641   -4.7360    0.0000 H   0  0  0  0  0  0  0  0  0  0  0  0
    7.5841   -4.1160    0.0000 H   0  0  0  0  0  0  0  0  0  0  0  0
    6.9641   -3.4960    0.0000 H   0  0  0  0  0  0  0  0  0  0  0  0
   11.2942    1.7640    0.0000 H   0  0  0  0  0  0  0  0  0  0  0  0
   11.9142    2.3840    0.0000 H   0  0  0  0  0  0  0  0  0  0  0  0
   11.2942    3.0040    0.0000 H   0  0  0  0  0  0  0  0  0  0  0  0
    8.2942    4.7360    0.0000 H   0  0  0  0  0  0  0  0  0  0  0  0
    7.6742    4.1160    0.0000 H   0  0  0  0  0  0  0  0  0  0  0  0
    8.2942    3.4960    0.0000 H   0  0  0  0  0  0  0  0  0  0  0  0
    7.5252    1.5600    0.0000 H   0  0  0  0  0  0  0  0  0  0  0  0
    7.7331   -1.5600    0.0000 H   0  0  0  0  0  0  0  0  0  0  0  0
    6.0010   -4.9400    0.0000 H   0  0  0  0  0  0  0  0  0  0  0  0
    9.2573    4.9400    0.0000 H   0  0  0  0  0  0  0  0  0  0  0  0
    3.1951   -6.5600    0.0000 H   0  0  0  0  0  0  0  0  0  0  0  0
   12.0632    6.5600    0.0000 H   0  0  0  0  0  0  0  0  0  0  0  0
    6.0010   -6.5600    0.0000 H   0  0  0  0  0  0  0  0  0  0  0  0
    9.2573    6.5600    0.0000 H   0  0  0  0  0  0  0  0  0  0  0  0
    4.5981   -7.3700    0.0000 H   0  0  0  0  0  0  0  0  0  0  0  0
   10.6603    7.3700    0.0000 H   0  0  0  0  0  0  0  0  0  0  0  0
   13.5683    4.7131    0.0000 H   0  0  0  0  0  0  0  0  0  0  0  0
   13.7953    5.5600    0.0000 H   0  0  0  0  0  0  0  0  0  0  0  0
   12.9483    5.7869    0.0000 H   0  0  0  0  0  0  0  0  0  0  0  0
    1.6900   -4.7131    0.0000 H   0  0  0  0  0  0  0  0  0  0  0  0
    1.4631   -5.5600    0.0000 H   0  0  0  0  0  0  0  0  0  0  0  0
    2.3100   -5.7869    0.0000 H   0  0  0  0  0  0  0  0  0  0  0  0
  1 26  1  0  0  0  0
  1 37  1  0  0  0  0
  2 25  1  0  0  0  0
  2 38  1  0  0  0  0
  3 30  2  0  0  0  0
  4 29  2  0  0  0  0
  5  9  1  0  0  0  0
  5 12  1  0  0  0  0
  5 13  1  0  0  0  0
  5 14  1  0  0  0  0
  6 10  1  0  0  0  0
  6 11  1  0  0  0  0
  6 15  1  0  0  0  0
  6 16  1  0  0  0  0
  7 17  1  0  0  0  0
  7 30  1  0  0  0  0
  7 71  1  0  0  0  0
  8 18  1  0  0  0  0
  8 29  1  0  0  0  0
  8 72  1  0  0  0  0
  9 17  1  0  0  0  0
  9 39  1  0  0  0  0
  9 40  1  0  0  0  0
 10 18  1  0  0  0  0
 10 41  1  0  0  0  0
 10 42  1  0  0  0  0
 11 19  1  0  0  0  0
 11 43  1  0  0  0  0
 11 44  1  0  0  0  0
 12 20  1  0  0  0  0
 12 45  1  0  0  0  0
 12 46  1  0  0  0  0
 13 24  1  0  0  0  0
 13 47  1  0  0  0  0
 13 48  1  0  0  0  0
 14 23  1  0  0  0  0
 14 49  1  0  0  0  0
 14 50  1  0  0  0  0
 15 21  1  0  0  0  0
 15 51  1  0  0  0  0
 15 52  1  0  0  0  0
 16 22  1  0  0  0  0
 16 53  1  0  0  0  0
 16 54  1  0  0  0  0
 17 55  1  0  0  0  0
 17 56  1  0  0  0  0
 18 57  1  0  0  0  0
 18 58  1  0  0  0  0
 19 25  1  0  0  0  0
 19 28  2  0  0  0  0
 20 26  1  0  0  0  0
 20 27  2  0  0  0  0
 21 59  1  0  0  0  0
 21 60  1  0  0  0  0
 21 61  1  0  0  0  0
 22 62  1  0  0  0  0
 22 63  1  0  0  0  0
 22 64  1  0  0  0  0
 23 65  1  0  0  0  0
 23 66  1  0  0  0  0
 23 67  1  0  0  0  0
 24 68  1  0  0  0  0
 24 69  1  0  0  0  0
 24 70  1  0  0  0  0
 25 32  2  0  0  0  0
 26 31  2  0  0  0  0
 27 34  1  0  0  0  0
 27 74  1  0  0  0  0
 28 33  1  0  0  0  0
 28 73  1  0  0  0  0
 29 30  1  0  0  0  0
 31 36  1  0  0  0  0
 31 76  1  0  0  0  0
 32 35  1  0  0  0  0
 32 75  1  0  0  0  0
 33 35  2  0  0  0  0
 33 77  1  0  0  0  0
 34 36  2  0  0  0  0
 34 78  1  0  0  0  0
 35 79  1  0  0  0  0
 36 80  1  0  0  0  0
 37 81  1  0  0  0  0
 37 82  1  0  0  0  0
 37 83  1  0  0  0  0
 38 84  1  0  0  0  0
 38 85  1  0  0  0  0
 38 86  1  0  0  0  0
M  CHG  2   5   1   6   1
M  END
> <PUBCHEM_COMPOUND_CID>
9041

> <PUBCHEM_COMPOUND_CANONICALIZED>
1

> <PUBCHEM_CACTVS_COMPLEXITY>
638

> <PUBCHEM_CACTVS_HBOND_ACCEPTOR>
4

> <PUBCHEM_CACTVS_HBOND_DONOR>
2

> <PUBCHEM_CACTVS_ROTATABLE_BOND>
16

> <PUBCHEM_CACTVS_SUBSKEYS>
AAADcfB7uAAAAAAAAAAAAAAAAAAAAAAAAAAwYAAAAAAAAAABQAAAHgAQAAAADATBmAYyBoPABACIAiFSEACCCAAgIAAIiICODIgMZiKEsTuUMChm1hGIqAeQwCAOAAAAAAAIAAAAAAAAABAAAAAAAAAAAA==

> <PUBCHEM_IUPAC_OPENEYE_NAME>
2-[[2-[2-[diethyl-[(2-methoxyphenyl)methyl]ammonio]ethylamino]-2-oxo-acetyl]amino]ethyl-diethyl-[(2-methoxyphenyl)methyl]ammonium

> <PUBCHEM_IUPAC_CAS_NAME>
2-[[2-[2-[diethyl-[(2-methoxyphenyl)methyl]ammonio]ethylamino]-1,2-dioxoethyl]amino]ethyl-diethyl-[(2-methoxyphenyl)methyl]ammonium

> <PUBCHEM_IUPAC_NAME>
2-[[2-[2-[diethyl-[(2-methoxyphenyl)methyl]azaniumyl]ethylamino]-2-oxoacetyl]amino]ethyl-diethyl-[(2-methoxyphenyl)methyl]azanium

> <PUBCHEM_IUPAC_SYSTEMATIC_NAME>
2-[[2-[2-[diethyl-[(2-methoxyphenyl)methyl]azaniumyl]ethylamino]-2-oxidanylidene-ethanoyl]amino]ethyl-diethyl-[(2-methoxyphenyl)methyl]azanium

> <PUBCHEM_IUPAC_TRADITIONAL_NAME>
2-[[2-[2-[diethyl(o-anisyl)ammonio]ethylamino]-2-keto-acetyl]amino]ethyl-diethyl-o-anisyl-ammonium

> <PUBCHEM_IUPAC_INCHI>
InChI=1S/C30H46N4O4/c1-7-33(8-2,23-25-15-11-13-17-27(25)37-5)21-19-31-29(35)30(36)32-20-22-34(9-3,10-4)24-26-16-12-14-18-28(26)38-6/h11-18H,7-10,19-24H2,1-6H3/p+2

> <PUBCHEM_IUPAC_INCHIKEY>
JTHLPXAUEYCJPV-UHFFFAOYSA-P

> <PUBCHEM_XLOGP3_AA>
3.8

> <PUBCHEM_EXACT_MASS>
528.367556

> <PUBCHEM_MOLECULAR_FORMULA>
C30H48N4O4+2

> <PUBCHEM_MOLECULAR_WEIGHT>
528.72652

> <PUBCHEM_OPENEYE_CAN_SMILES>
CC[N+](CC)(CCNC(=O)C(=O)NCC[N+](CC)(CC)CC1=CC=CC=C1OC)CC2=CC=CC=C2OC

> <PUBCHEM_OPENEYE_ISO_SMILES>
CC[N+](CC)(CCNC(=O)C(=O)NCC[N+](CC)(CC)CC1=CC=CC=C1OC)CC2=CC=CC=C2OC

> <PUBCHEM_CACTVS_TPSA>
76.7

> <PUBCHEM_MONOISOTOPIC_WEIGHT>
528.367556

> <PUBCHEM_TOTAL_CHARGE>
2

> <PUBCHEM_HEAVY_ATOM_COUNT>
38

> <PUBCHEM_ATOM_DEF_STEREO_COUNT>
0

> <PUBCHEM_ATOM_UDEF_STEREO_COUNT>
0

> <PUBCHEM_BOND_DEF_STEREO_COUNT>
0

> <PUBCHEM_BOND_UDEF_STEREO_COUNT>
0

> <PUBCHEM_ISOTOPIC_ATOM_COUNT>
0

> <PUBCHEM_COMPONENT_COUNT>
1

> <PUBCHEM_CACTVS_TAUTO_COUNT>
3

> <PUBCHEM_COORDINATE_TYPE>
1
5
255

> <PUBCHEM_BONDANNOTATIONS>
19  25  8
19  28  8
20  26  8
20  27  8
25  32  8
26  31  8
27  34  8
28  33  8
31  36  8
32  35  8
33  35  8
34  36  8

$$$$

