7525
  -OEChem-06261202072D

 21 21  0     0  0  0  0  0  0999 V2000
    2.8660    1.7500    0.0000 O   0  0  0  0  0  0  0  0  0  0  0  0
    2.8660   -0.2500    0.0000 N   0  0  0  0  0  0  0  0  0  0  0  0
    2.0000    0.2500    0.0000 C   0  0  0  0  0  0  0  0  0  0  0  0
    3.7320    0.2500    0.0000 C   0  0  0  0  0  0  0  0  0  0  0  0
    3.7320    1.2500    0.0000 C   0  0  0  0  0  0  0  0  0  0  0  0
    2.0000    1.2500    0.0000 C   0  0  0  0  0  0  0  0  0  0  0  0
    2.8660   -1.2500    0.0000 C   0  0  0  0  0  0  0  0  0  0  0  0
    2.0000   -1.7500    0.0000 C   0  0  0  0  0  0  0  0  0  0  0  0
    3.9441   -0.3326    0.0000 H   0  0  0  0  0  0  0  0  0  0  0  0
    4.3426    0.3577    0.0000 H   0  0  0  0  0  0  0  0  0  0  0  0
    1.3894    0.3577    0.0000 H   0  0  0  0  0  0  0  0  0  0  0  0
    1.7880   -0.3326    0.0000 H   0  0  0  0  0  0  0  0  0  0  0  0
    4.3426    1.1423    0.0000 H   0  0  0  0  0  0  0  0  0  0  0  0
    1.7880    1.8326    0.0000 H   0  0  0  0  0  0  0  0  0  0  0  0
    1.3894    1.1423    0.0000 H   0  0  0  0  0  0  0  0  0  0  0  0
    3.9441    1.8326    0.0000 H   0  0  0  0  0  0  0  0  0  0  0  0
    3.0781   -1.8326    0.0000 H   0  0  0  0  0  0  0  0  0  0  0  0
    3.4766   -1.1423    0.0000 H   0  0  0  0  0  0  0  0  0  0  0  0
    1.6900   -1.2131    0.0000 H   0  0  0  0  0  0  0  0  0  0  0  0
    1.4631   -2.0600    0.0000 H   0  0  0  0  0  0  0  0  0  0  0  0
    2.3100   -2.2869    0.0000 H   0  0  0  0  0  0  0  0  0  0  0  0
  1  5  1  0  0  0  0
  1  6  1  0  0  0  0
  2  3  1  0  0  0  0
  2  4  1  0  0  0  0
  2  7  1  0  0  0  0
  3  6  1  0  0  0  0
  3 11  1  0  0  0  0
  3 12  1  0  0  0  0
  4  5  1  0  0  0  0
  4  9  1  0  0  0  0
  4 10  1  0  0  0  0
  5 13  1  0  0  0  0
  5 16  1  0  0  0  0
  6 14  1  0  0  0  0
  6 15  1  0  0  0  0
  7  8  1  0  0  0  0
  7 17  1  0  0  0  0
  7 18  1  0  0  0  0
  8 19  1  0  0  0  0
  8 20  1  0  0  0  0
  8 21  1  0  0  0  0
M  END
> <PUBCHEM_COMPOUND_CID>
7525

> <PUBCHEM_COMPOUND_CANONICALIZED>
1

> <PUBCHEM_CACTVS_COMPLEXITY>
59.5

> <PUBCHEM_CACTVS_HBOND_ACCEPTOR>
2

> <PUBCHEM_CACTVS_HBOND_DONOR>
0

> <PUBCHEM_CACTVS_ROTATABLE_BOND>
1

> <PUBCHEM_CACTVS_SUBSKEYS>
AAADccBiIAAAAAAAAAAAAAAAAAAAAAAAAAAsAAAAAAAAAAAAAAAAHgAAAAAAAADhgAYCAAMABAAAAAAAAAAAAAAAAAAAAAAIAAACAAAAAAADAAAAAACQAAAAAAAAAAAAAAAAAAAAAAAAAAAAAAAAAAAAAA==

> <PUBCHEM_IUPAC_OPENEYE_NAME>
4-ethylmorpholine

> <PUBCHEM_IUPAC_CAS_NAME>
4-ethylmorpholine

> <PUBCHEM_IUPAC_NAME>
4-ethylmorpholine

> <PUBCHEM_IUPAC_SYSTEMATIC_NAME>
4-ethylmorpholine

> <PUBCHEM_IUPAC_TRADITIONAL_NAME>
4-ethylmorpholine

> <PUBCHEM_IUPAC_INCHI>
InChI=1S/C6H13NO/c1-2-7-3-5-8-6-4-7/h2-6H2,1H3

> <PUBCHEM_IUPAC_INCHIKEY>
HVCNXQOWACZAFN-UHFFFAOYSA-N

> <PUBCHEM_XLOGP3>
0

> <PUBCHEM_EXACT_MASS>
115.099714

> <PUBCHEM_MOLECULAR_FORMULA>
C6H13NO

> <PUBCHEM_MOLECULAR_WEIGHT>
115.17352

> <PUBCHEM_OPENEYE_CAN_SMILES>
CCN1CCOCC1

> <PUBCHEM_OPENEYE_ISO_SMILES>
CCN1CCOCC1

> <PUBCHEM_CACTVS_TPSA>
12.5

> <PUBCHEM_MONOISOTOPIC_WEIGHT>
115.099714

> <PUBCHEM_TOTAL_CHARGE>
0

> <PUBCHEM_HEAVY_ATOM_COUNT>
8

> <PUBCHEM_ATOM_DEF_STEREO_COUNT>
0

> <PUBCHEM_ATOM_UDEF_STEREO_COUNT>
0

> <PUBCHEM_BOND_DEF_STEREO_COUNT>
0

> <PUBCHEM_BOND_UDEF_STEREO_COUNT>
0

> <PUBCHEM_ISOTOPIC_ATOM_COUNT>
0

> <PUBCHEM_COMPONENT_COUNT>
1

> <PUBCHEM_CACTVS_TAUTO_COUNT>
1

> <PUBCHEM_COORDINATE_TYPE>
1
5
255

$$$$

