47205623
  -OEChem-06241222593D

 30 31  0     0  0  0  0  0  0999 V2000
   -5.7285    1.7518   -0.2217 F   0  0  0  0  0  0  0  0  0  0  0  0
   -6.2650   -0.2608   -0.8454 F   0  0  0  0  0  0  0  0  0  0  0  0
   -6.0856    0.2059    1.2650 F   0  0  0  0  0  0  0  0  0  0  0  0
    2.7786   -1.7161   -0.2035 O   0  0  0  0  0  0  0  0  0  0  0  0
    3.3871    0.5357    0.0641 N   0  0  0  0  0  0  0  0  0  0  0  0
    6.9184    1.0223    0.1362 N   0  0  0  0  0  0  0  0  0  0  0  0
    6.9419   -0.3122   -0.0206 N   0  0  0  0  0  0  0  0  0  0  0  0
   -1.3480   -0.5886   -0.0782 C   0  0  0  0  0  0  0  0  0  0  0  0
   -4.0555    0.0779    0.0065 C   0  0  0  0  0  0  0  0  0  0  0  0
   -1.7519    0.7221   -0.3326 C   0  0  0  0  0  0  0  0  0  0  0  0
   -2.2978   -1.5660    0.2185 C   0  0  0  0  0  0  0  0  0  0  0  0
   -3.1056    1.0555   -0.2903 C   0  0  0  0  0  0  0  0  0  0  0  0
   -3.6515   -1.2328    0.2608 C   0  0  0  0  0  0  0  0  0  0  0  0
    0.0637   -0.9366   -0.1224 C   0  0  0  0  0  0  0  0  0  0  0  0
   -5.5032    0.4335    0.0507 C   0  0  0  0  0  0  0  0  0  0  0  0
    4.8027    0.4842    0.0639 C   0  0  0  0  0  0  0  0  0  0  0  0
    1.0871   -0.0593   -0.0152 C   0  0  0  0  0  0  0  0  0  0  0  0
    2.5054   -0.5298   -0.0646 C   0  0  0  0  0  0  0  0  0  0  0  0
    5.6613    1.5485    0.1929 C   0  0  0  0  0  0  0  0  0  0  0  0
    5.6466   -0.6353   -0.0640 C   0  0  0  0  0  0  0  0  0  0  0  0
   -1.0511    1.5114   -0.5882 H   0  0  0  0  0  0  0  0  0  0  0  0
   -2.0020   -2.5926    0.4208 H   0  0  0  0  0  0  0  0  0  0  0  0
   -3.4005    2.0808   -0.4961 H   0  0  0  0  0  0  0  0  0  0  0  0
   -4.3844   -2.0010    0.4929 H   0  0  0  0  0  0  0  0  0  0  0  0
    0.2786   -1.9962   -0.2417 H   0  0  0  0  0  0  0  0  0  0  0  0
    0.9246    1.0027    0.1316 H   0  0  0  0  0  0  0  0  0  0  0  0
    3.0130    1.4759    0.1728 H   0  0  0  0  0  0  0  0  0  0  0  0
    5.4974    2.6096    0.3171 H   0  0  0  0  0  0  0  0  0  0  0  0
    5.3862   -1.6765   -0.1874 H   0  0  0  0  0  0  0  0  0  0  0  0
    7.8013    1.5138    0.1977 H   0  0  0  0  0  0  0  0  0  0  0  0
  1 15  1  0  0  0  0
  2 15  1  0  0  0  0
  3 15  1  0  0  0  0
  4 18  2  0  0  0  0
  5 16  1  0  0  0  0
  5 18  1  0  0  0  0
  5 27  1  0  0  0  0
  6  7  1  0  0  0  0
  6 19  1  0  0  0  0
  6 30  1  0  0  0  0
  7 20  2  0  0  0  0
  8 10  2  0  0  0  0
  8 11  1  0  0  0  0
  8 14  1  0  0  0  0
  9 12  2  0  0  0  0
  9 13  1  0  0  0  0
  9 15  1  0  0  0  0
 10 12  1  0  0  0  0
 10 21  1  0  0  0  0
 11 13  2  0  0  0  0
 11 22  1  0  0  0  0
 12 23  1  0  0  0  0
 13 24  1  0  0  0  0
 14 17  2  0  0  0  0
 14 25  1  0  0  0  0
 16 19  2  0  0  0  0
 16 20  1  0  0  0  0
 17 18  1  0  0  0  0
 17 26  1  0  0  0  0
 19 28  1  0  0  0  0
 20 29  1  0  0  0  0
M  END
> <PUBCHEM_COMPOUND_CID>
47205623

> <PUBCHEM_CONFORMER_RMSD>
0.8

> <PUBCHEM_CONFORMER_DIVERSEORDER>
1
3
2

> <PUBCHEM_MMFF94_PARTIAL_CHARGES>
30
1 -0.34
10 -0.15
11 -0.15
12 -0.15
13 -0.15
14 -0.18
15 1.16
16 0.06
17 -0.14
18 0.62
19 -0.3
2 -0.34
20 0.14
21 0.15
22 0.15
23 0.15
24 0.15
25 0.15
26 0.15
27 0.37
28 0.15
29 0.15
3 -0.34
30 0.27
4 -0.57
5 -0.49
6 0.3
7 -0.71
8 0.03
9 -0.14

> <PUBCHEM_EFFECTIVE_ROTOR_COUNT>
5

> <PUBCHEM_PHARMACOPHORE_FEATURES>
6
1 4 acceptor
1 5 donor
1 6 donor
1 7 acceptor
5 6 7 16 19 20 rings
6 8 9 10 11 12 13 rings

> <PUBCHEM_HEAVY_ATOM_COUNT>
20

> <PUBCHEM_ATOM_DEF_STEREO_COUNT>
0

> <PUBCHEM_ATOM_UDEF_STEREO_COUNT>
0

> <PUBCHEM_BOND_DEF_STEREO_COUNT>
0

> <PUBCHEM_BOND_UDEF_STEREO_COUNT>
1

> <PUBCHEM_ISOTOPIC_ATOM_COUNT>
0

> <PUBCHEM_COMPONENT_COUNT>
1

> <PUBCHEM_CACTVS_TAUTO_COUNT>
4

> <PUBCHEM_CONFORMER_ID>
02D04CF700000001

> <PUBCHEM_MMFF94_ENERGY>
37.4316

> <PUBCHEM_FEATURE_SELFOVERLAP>
30.446

> <PUBCHEM_SHAPE_FINGERPRINT>
10 15 17989207015101071232
10354089 29 17632860820072313096
10411042 1 17835800799511271627
10968037 39 18409167706017340895
11089746 13 17603307033532490656
11315181 36 17967530147242672953
12091667 2 18411700980981861983
12236239 1 17847061073455873558
125118 31 18060699498595872188
12616971 3 16056874693816548494
13167372 99 18335982055973023344
13533116 47 17822572819729596034
13668630 136 12247680491517356928
14251764 18 18334293154799745211
14251764 46 18410857659151423846
14341114 176 18343017796614050660
14350574 20 8430315740422683322
14729087 3 18410860966361014608
14933364 13 18411979148759973144
15048467 5 18408604764152837129
15183329 4 18260544546227305008
15501527 16 18410573980861765099
17834076 25 18040435490504863610
18335252 98 18408881816210603315
20281389 69 18342177769329795504
20645477 56 18413674612616645919
21033648 29 18261966124741935720
21150785 3 16515407348147045333
21315763 28 18409731759270961534
22224240 67 14477242635671245456
23198884 109 16732698359377225475
23402539 116 18409453552769865558
23536379 177 18412263939388100562
23559900 14 18335990765697110465
246663 6 5906042674015798501
29717793 49 17023177245962007364
300161 21 18343024397446268471
3545911 37 18412262848260659374
4073 2 17988357075644149122
42788 4 18410293601597606582
4325135 7 18261116262266980463
4463277 17 18411138039080441488
465052 167 11240001166162801352
5104073 3 18058444481924801305
542803 24 17530964691689423362

> <PUBCHEM_SHAPE_MULTIPOLES>
368.96
19.09
1.45
0.69
11.45
0.01
-0.05
-5.54
-0.97
-0.09
0.01
-0.53
-0.01
0.35

> <PUBCHEM_SHAPE_SELFOVERLAP>
791.318

> <PUBCHEM_SHAPE_VOLUME>
203.8

> <PUBCHEM_COORDINATE_TYPE>
2
5
10

$$$$

