3566
  -OEChem-06251223303D

 28 30  0     0  0  0  0  0  0999 V2000
   -4.2837    0.0809    0.0003 O   0  0  0  0  0  0  0  0  0  0  0  0
    0.3737    1.4417   -0.0004 N   0  0  0  0  0  0  0  0  0  0  0  0
    3.7467   -0.0608    0.0008 N   0  0  0  0  0  0  0  0  0  0  0  0
    1.1084   -0.7629    0.0000 C   0  0  0  0  0  0  0  0  0  0  0  0
   -0.2219   -0.8424   -0.0001 C   0  0  0  0  0  0  0  0  0  0  0  0
    1.4940    0.6492   -0.0003 C   0  0  0  0  0  0  0  0  0  0  0  0
   -0.6081    0.5884   -0.0002 C   0  0  0  0  0  0  0  0  0  0  0  0
    2.8044    0.9690    0.0002 C   0  0  0  0  0  0  0  0  0  0  0  0
    2.1091   -1.8119    0.0002 C   0  0  0  0  0  0  0  0  0  0  0  0
   -1.1975   -1.8830   -0.0005 C   0  0  0  0  0  0  0  0  0  0  0  0
   -2.0588    0.8809    0.0001 C   0  0  0  0  0  0  0  0  0  0  0  0
    3.3909   -1.3979    0.0006 C   0  0  0  0  0  0  0  0  0  0  0  0
   -2.9223   -0.1493   -0.0001 C   0  0  0  0  0  0  0  0  0  0  0  0
   -2.4975   -1.5444   -0.0008 C   0  0  0  0  0  0  0  0  0  0  0  0
    3.3200    2.3741   -0.0008 C   0  0  0  0  0  0  0  0  0  0  0  0
   -4.5573    1.4681    0.0010 C   0  0  0  0  0  0  0  0  0  0  0  0
    1.8329   -2.8578    0.0000 H   0  0  0  0  0  0  0  0  0  0  0  0
   -0.8860   -2.9206   -0.0009 H   0  0  0  0  0  0  0  0  0  0  0  0
   -2.2803    1.9395    0.0005 H   0  0  0  0  0  0  0  0  0  0  0  0
    4.7304    0.1792    0.0004 H   0  0  0  0  0  0  0  0  0  0  0  0
    4.2320   -2.0793    0.0008 H   0  0  0  0  0  0  0  0  0  0  0  0
   -3.2645   -2.3120   -0.0012 H   0  0  0  0  0  0  0  0  0  0  0  0
    2.5126    3.1134   -0.0019 H   0  0  0  0  0  0  0  0  0  0  0  0
    3.9357    2.5521   -0.8888 H   0  0  0  0  0  0  0  0  0  0  0  0
    3.9349    2.5537    0.8874 H   0  0  0  0  0  0  0  0  0  0  0  0
   -5.6492    1.5691    0.0012 H   0  0  0  0  0  0  0  0  0  0  0  0
   -4.2219    1.9682   -0.9160 H   0  0  0  0  0  0  0  0  0  0  0  0
   -4.2214    1.9674    0.9181 H   0  0  0  0  0  0  0  0  0  0  0  0
  1 13  1  0  0  0  0
  1 16  1  0  0  0  0
  2  6  1  0  0  0  0
  2  7  2  0  0  0  0
  3  8  1  0  0  0  0
  3 12  1  0  0  0  0
  3 20  1  0  0  0  0
  4  5  2  0  0  0  0
  4  6  1  0  0  0  0
  4  9  1  0  0  0  0
  5  7  1  0  0  0  0
  5 10  1  0  0  0  0
  6  8  2  0  0  0  0
  7 11  1  0  0  0  0
  8 15  1  0  0  0  0
  9 12  2  0  0  0  0
  9 17  1  0  0  0  0
 10 14  2  0  0  0  0
 10 18  1  0  0  0  0
 11 13  2  0  0  0  0
 11 19  1  0  0  0  0
 12 21  1  0  0  0  0
 13 14  1  0  0  0  0
 14 22  1  0  0  0  0
 15 23  1  0  0  0  0
 15 24  1  0  0  0  0
 15 25  1  0  0  0  0
 16 26  1  0  0  0  0
 16 27  1  0  0  0  0
 16 28  1  0  0  0  0
M  END
> <PUBCHEM_COMPOUND_CID>
3566

> <PUBCHEM_CONFORMER_RMSD>
0.6

> <PUBCHEM_CONFORMER_DIVERSEORDER>
1

> <PUBCHEM_MMFF94_PARTIAL_CHARGES>
21
1 -0.36
10 -0.15
11 -0.14
12 -0.05
13 0.08
14 -0.15
15 0.14
16 0.28
17 0.15
18 0.15
19 0.15
2 -0.62
20 0.4
21 0.15
22 0.15
3 -0.6
5 0.01
6 0.17
7 0.42
8 -0.04
9 -0.15

> <PUBCHEM_EFFECTIVE_ROTOR_COUNT>
1

> <PUBCHEM_PHARMACOPHORE_FEATURES>
7
1 1 acceptor
1 2 acceptor
1 3 cation
1 3 donor
5 2 4 5 6 7 rings
6 3 4 6 8 9 12 rings
6 5 7 10 11 13 14 rings

> <PUBCHEM_HEAVY_ATOM_COUNT>
16

> <PUBCHEM_ATOM_DEF_STEREO_COUNT>
0

> <PUBCHEM_ATOM_UDEF_STEREO_COUNT>
0

> <PUBCHEM_BOND_DEF_STEREO_COUNT>
0

> <PUBCHEM_BOND_UDEF_STEREO_COUNT>
0

> <PUBCHEM_ISOTOPIC_ATOM_COUNT>
0

> <PUBCHEM_COMPONENT_COUNT>
1

> <PUBCHEM_CACTVS_TAUTO_COUNT>
2

> <PUBCHEM_CONFORMER_ID>
00000DEE00000001

> <PUBCHEM_MMFF94_ENERGY>
57.6224

> <PUBCHEM_FEATURE_SELFOVERLAP>
35.747

> <PUBCHEM_SHAPE_FINGERPRINT>
10411042 1 17257652747514058903
10608611 8 18411703157839437941
10967382 1 18410575106333120198
11132069 177 18409737239796930936
11471102 20 18410295838959095782
12251169 10 18410578413626866706
13140716 1 18412831274176330442
13380535 21 18339636746244096878
13380535 76 18408886234898215311
13675066 3 18131345306844537977
14144814 61 18410292510227605099
14178342 30 18123484786400802786
14325111 11 18410855421494613601
14897335 6 18409451353751657047
15196674 1 18410856538281199015
15219456 202 18412260597339191122
15442244 35 18337390573027356658
15536298 74 18335138683156514598
16945 1 18338797935152790342
18186145 218 17846222158747463710
19591789 44 15451974407703901534
200 152 17894918438046621487
20645477 70 18334575762956920735
21267235 1 18410283718414083055
21452121 103 18334868190743775536
21501502 16 18337958891542471198
221490 88 18340478985458199770
2334 1 18338516318326192330
23402539 116 18187375367086824053
23402655 69 18334297591026201973
23463225 33 18411700989170967406
23559900 14 18334579066425022506
2748010 2 18339075987051161190
335352 9 18338799030253413206
34934 24 18409455773536833178
474 4 17774437162252713332
495365 180 17604164661181508688
5104073 3 18412263908853838283
53812653 166 18261959535576417976
69090 78 18408609171195607679
7364860 26 18335138692062921366
8809292 202 18272083890037179682
9709674 26 18409162199389901663

> <PUBCHEM_SHAPE_MULTIPOLES>
313.44
7.41
2.2
0.6
3.6
0.14
0
2.22
0
-0.94
0
0
-0.01
0

> <PUBCHEM_SHAPE_SELFOVERLAP>
698.976

> <PUBCHEM_SHAPE_VOLUME>
168.7

> <PUBCHEM_COORDINATE_TYPE>
2
5
10

$$$$

