8321
  -OEChem-06261202443D

 30 32  0     0  0  0  0  0  0999 V2000
    2.5282   -2.1974    0.2964 O   0  0  0  0  0  0  0  0  0  0  0  0
   -0.8845    2.7399   -0.1463 O   0  0  0  0  0  0  0  0  0  0  0  0
   -0.0353   -2.5216    0.2357 O   0  0  0  0  0  0  0  0  0  0  0  0
    1.6666    3.2876   -0.0955 N   0  0  0  0  0  0  0  0  0  0  0  0
    0.7202    1.0042    0.0245 C   0  0  0  0  0  0  0  0  0  0  0  0
    0.9390   -0.3715    0.1231 C   0  0  0  0  0  0  0  0  0  0  0  0
   -1.7930    0.6006   -0.0325 C   0  0  0  0  0  0  0  0  0  0  0  0
   -1.5744   -0.7750    0.0666 C   0  0  0  0  0  0  0  0  0  0  0  0
   -0.6536    1.5405   -0.0573 C   0  0  0  0  0  0  0  0  0  0  0  0
   -0.2004   -1.3113    0.1482 C   0  0  0  0  0  0  0  0  0  0  0  0
    1.8088    1.8844    0.0022 C   0  0  0  0  0  0  0  0  0  0  0  0
    2.2461   -0.8671    0.1989 C   0  0  0  0  0  0  0  0  0  0  0  0
    3.1098    1.3864    0.0783 C   0  0  0  0  0  0  0  0  0  0  0  0
    3.3280    0.0135    0.1762 C   0  0  0  0  0  0  0  0  0  0  0  0
   -3.1002    1.0961   -0.1089 C   0  0  0  0  0  0  0  0  0  0  0  0
   -2.6629   -1.6551    0.0891 C   0  0  0  0  0  0  0  0  0  0  0  0
   -3.9640   -1.1572    0.0124 C   0  0  0  0  0  0  0  0  0  0  0  0
   -4.1821    0.2156   -0.0866 C   0  0  0  0  0  0  0  0  0  0  0  0
    2.7037   -2.9127   -0.9244 C   0  0  0  0  0  0  0  0  0  0  0  0
    3.9661    2.0564    0.0624 H   0  0  0  0  0  0  0  0  0  0  0  0
    4.3460   -0.3628    0.2358 H   0  0  0  0  0  0  0  0  0  0  0  0
   -2.5212   -2.7298    0.1656 H   0  0  0  0  0  0  0  0  0  0  0  0
   -3.2995    2.1616   -0.1866 H   0  0  0  0  0  0  0  0  0  0  0  0
   -4.8080   -1.8406    0.0298 H   0  0  0  0  0  0  0  0  0  0  0  0
   -5.1960    0.6007   -0.1461 H   0  0  0  0  0  0  0  0  0  0  0  0
    2.4883    3.8778   -0.1074 H   0  0  0  0  0  0  0  0  0  0  0  0
    0.7523    3.7125   -0.1537 H   0  0  0  0  0  0  0  0  0  0  0  0
    3.6751   -2.6643   -1.3636 H   0  0  0  0  0  0  0  0  0  0  0  0
    1.9070   -2.6897   -1.6414 H   0  0  0  0  0  0  0  0  0  0  0  0
    2.6851   -3.9828   -0.7009 H   0  0  0  0  0  0  0  0  0  0  0  0
  1 12  1  0  0  0  0
  1 19  1  0  0  0  0
  2  9  2  0  0  0  0
  3 10  2  0  0  0  0
  4 11  1  0  0  0  0
  4 26  1  0  0  0  0
  4 27  1  0  0  0  0
  5  6  1  0  0  0  0
  5  9  1  0  0  0  0
  5 11  2  0  0  0  0
  6 10  1  0  0  0  0
  6 12  2  0  0  0  0
  7  8  1  0  0  0  0
  7  9  1  0  0  0  0
  7 15  2  0  0  0  0
  8 10  1  0  0  0  0
  8 16  2  0  0  0  0
 11 13  1  0  0  0  0
 12 14  1  0  0  0  0
 13 14  2  0  0  0  0
 13 20  1  0  0  0  0
 14 21  1  0  0  0  0
 15 18  1  0  0  0  0
 15 23  1  0  0  0  0
 16 17  1  0  0  0  0
 16 22  1  0  0  0  0
 17 18  2  0  0  0  0
 17 24  1  0  0  0  0
 18 25  1  0  0  0  0
 19 28  1  0  0  0  0
 19 29  1  0  0  0  0
 19 30  1  0  0  0  0
M  END
> <PUBCHEM_COMPOUND_CID>
8321

> <PUBCHEM_CONFORMER_RMSD>
0.6

> <PUBCHEM_CONFORMER_DIVERSEORDER>
1

> <PUBCHEM_MMFF94_PARTIAL_CHARGES>
27
1 -0.36
10 0.4
11 0.1
12 0.08
13 -0.15
14 -0.15
15 -0.15
16 -0.15
17 -0.15
18 -0.15
19 0.28
2 -0.57
20 0.15
21 0.15
22 0.15
23 0.15
24 0.15
25 0.15
26 0.4
27 0.4
3 -0.57
4 -0.9
5 0.09
6 0.09
7 0.09
8 0.09
9 0.4

> <PUBCHEM_EFFECTIVE_ROTOR_COUNT>
1

> <PUBCHEM_PHARMACOPHORE_FEATURES>
8
1 1 acceptor
1 2 acceptor
1 3 acceptor
1 4 cation
1 4 donor
6 5 6 11 12 13 14 rings
6 5 6 7 8 9 10 rings
6 7 8 15 16 17 18 rings

> <PUBCHEM_HEAVY_ATOM_COUNT>
19

> <PUBCHEM_ATOM_DEF_STEREO_COUNT>
0

> <PUBCHEM_ATOM_UDEF_STEREO_COUNT>
0

> <PUBCHEM_BOND_DEF_STEREO_COUNT>
0

> <PUBCHEM_BOND_UDEF_STEREO_COUNT>
0

> <PUBCHEM_ISOTOPIC_ATOM_COUNT>
0

> <PUBCHEM_COMPONENT_COUNT>
1

> <PUBCHEM_CACTVS_TAUTO_COUNT>
3

> <PUBCHEM_CONFORMER_ID>
0000208100000001

> <PUBCHEM_MMFF94_ENERGY>
82.9949

> <PUBCHEM_FEATURE_SELFOVERLAP>
40.649

> <PUBCHEM_SHAPE_FINGERPRINT>
10411042 1 18122626316648700290
10608611 8 18341618096647274685
10616163 171 18194681458339059711
10967382 1 18411419488123649201
10980938 120 18339361855431035114
11132069 177 18337962198714632113
11471102 20 18411423869000951125
11578080 2 17058670653442422342
11680986 33 18411694391842828978
116883 192 18191585469818138638
12553582 1 18051692440800478539
13140716 1 18123195597763029384
13380535 76 18268433438560671186
138480 1 18338516443059299652
13897977 150 18411704244729829981
14223421 5 18410858775906308853
14790565 3 16461626184658740672
14866123 147 17109590320682333787
15196674 1 18411702049795793953
15442244 35 18265050408669431099
15536298 74 18334858324549638498
16945 1 18410853227009080928
17492 89 18408604747448644183
193761 8 18195247943087294025
19591789 44 18050282566182349974
20559304 39 18411138030680326568
20645477 70 18411426102996050287
20905425 154 18336262444037794844
21267235 1 18411411787390056595
21501502 16 18337951293739906929
221490 88 18412536617760527707
23184049 29 18267870669059114754
2334 1 18339924818533154363
23402539 116 18263373516008727230
23463225 33 18412265017076777473
23559900 14 18408891754315942288
23566358 2 18338797943853339380
238 59 17766326120835175917
2748010 2 18194692681336186252
335352 9 18122908900095485285
34934 24 18410020905228165295
352729 6 17979914904304685715
5104073 3 18411983537815682497
7364860 26 18408322168521900078
9709674 26 18411979131237732339

> <PUBCHEM_SHAPE_MULTIPOLES>
368.42
6.24
3.27
0.66
3.44
0.19
0.04
-1.05
0.15
-2.14
0.38
-0.12
-0.15
0.37

> <PUBCHEM_SHAPE_SELFOVERLAP>
830.713

> <PUBCHEM_SHAPE_VOLUME>
192.3

> <PUBCHEM_COORDINATE_TYPE>
2
5
10

$$$$

