6311
  -OEChem-06261201142D

 64 68  0     0  0  0  0  0  0999 V2000
    4.5981   -2.5000    0.0000 O   0  0  0  0  0  0  0  0  0  0  0  0
    2.8660    2.5000    0.0000 O   0  0  0  0  0  0  0  0  0  0  0  0
    3.7320   -7.0000    0.0000 N   0  0  0  0  0  0  0  0  0  0  0  0
    3.7320    7.0000    0.0000 N   0  0  0  0  0  0  0  0  0  0  0  0
    2.0000   -7.0000    0.0000 N   0  0  0  0  0  0  0  0  0  0  0  0
    5.4641    7.0000    0.0000 N   0  0  0  0  0  0  0  0  0  0  0  0
    2.8660   -2.5000    0.0000 N   0  0  0  0  0  0  0  0  0  0  0  0
    4.5981    2.5000    0.0000 N   0  0  0  0  0  0  0  0  0  0  0  0
    4.5981    8.5000    0.0000 C   0  0  0  0  0  0  0  0  0  0  0  0
    2.8660   -8.5000    0.0000 C   0  0  0  0  0  0  0  0  0  0  0  0
    3.7320    8.0000    0.0000 C   0  0  0  0  0  0  0  0  0  0  0  0
    3.7320   -8.0000    0.0000 C   0  0  0  0  0  0  0  0  0  0  0  0
    5.4641    8.0000    0.0000 C   0  0  0  0  0  0  0  0  0  0  0  0
    2.0000   -8.0000    0.0000 C   0  0  0  0  0  0  0  0  0  0  0  0
    2.8660   -6.5000    0.0000 C   0  0  0  0  0  0  0  0  0  0  0  0
    4.5981    6.5000    0.0000 C   0  0  0  0  0  0  0  0  0  0  0  0
    4.5981    5.5000    0.0000 C   0  0  0  0  0  0  0  0  0  0  0  0
    2.8660   -5.5000    0.0000 C   0  0  0  0  0  0  0  0  0  0  0  0
    2.0000   -5.0000    0.0000 C   0  0  0  0  0  0  0  0  0  0  0  0
    3.7320    5.0000    0.0000 C   0  0  0  0  0  0  0  0  0  0  0  0
    3.7320   -5.0000    0.0000 C   0  0  0  0  0  0  0  0  0  0  0  0
    5.4641    5.0000    0.0000 C   0  0  0  0  0  0  0  0  0  0  0  0
    4.5981    3.5000    0.0000 C   0  0  0  0  0  0  0  0  0  0  0  0
    2.8660   -3.5000    0.0000 C   0  0  0  0  0  0  0  0  0  0  0  0
    2.0000   -4.0000    0.0000 C   0  0  0  0  0  0  0  0  0  0  0  0
    3.7320    4.0000    0.0000 C   0  0  0  0  0  0  0  0  0  0  0  0
    3.7320   -4.0000    0.0000 C   0  0  0  0  0  0  0  0  0  0  0  0
    5.4641    4.0000    0.0000 C   0  0  0  0  0  0  0  0  0  0  0  0
    3.7320    1.0000    0.0000 C   0  0  0  0  0  0  0  0  0  0  0  0
    3.7320   -1.0000    0.0000 C   0  0  0  0  0  0  0  0  0  0  0  0
    3.7320   -2.0000    0.0000 C   0  0  0  0  0  0  0  0  0  0  0  0
    3.7320    2.0000    0.0000 C   0  0  0  0  0  0  0  0  0  0  0  0
    2.8660   -0.5000    0.0000 C   0  0  0  0  0  0  0  0  0  0  0  0
    2.8660    0.5000    0.0000 C   0  0  0  0  0  0  0  0  0  0  0  0
    4.5981   -0.5000    0.0000 C   0  0  0  0  0  0  0  0  0  0  0  0
    4.5981    0.5000    0.0000 C   0  0  0  0  0  0  0  0  0  0  0  0
    2.4675   -8.9750    0.0000 H   0  0  0  0  0  0  0  0  0  0  0  0
    3.2646   -8.9750    0.0000 H   0  0  0  0  0  0  0  0  0  0  0  0
    4.9966    8.9750    0.0000 H   0  0  0  0  0  0  0  0  0  0  0  0
    4.1996    8.9750    0.0000 H   0  0  0  0  0  0  0  0  0  0  0  0
    3.9441   -8.5826    0.0000 H   0  0  0  0  0  0  0  0  0  0  0  0
    4.3426   -7.8923    0.0000 H   0  0  0  0  0  0  0  0  0  0  0  0
    3.5200    8.5826    0.0000 H   0  0  0  0  0  0  0  0  0  0  0  0
    3.1215    7.8923    0.0000 H   0  0  0  0  0  0  0  0  0  0  0  0
    1.3894   -7.8923    0.0000 H   0  0  0  0  0  0  0  0  0  0  0  0
    1.7880   -8.5826    0.0000 H   0  0  0  0  0  0  0  0  0  0  0  0
    6.0747    7.8923    0.0000 H   0  0  0  0  0  0  0  0  0  0  0  0
    5.6762    8.5826    0.0000 H   0  0  0  0  0  0  0  0  0  0  0  0
    4.2690   -6.6900    0.0000 H   0  0  0  0  0  0  0  0  0  0  0  0
    3.1951    6.6900    0.0000 H   0  0  0  0  0  0  0  0  0  0  0  0
    3.1951    5.3100    0.0000 H   0  0  0  0  0  0  0  0  0  0  0  0
    1.4631   -5.3100    0.0000 H   0  0  0  0  0  0  0  0  0  0  0  0
    6.0010    5.3100    0.0000 H   0  0  0  0  0  0  0  0  0  0  0  0
    4.2690   -5.3100    0.0000 H   0  0  0  0  0  0  0  0  0  0  0  0
    1.4631   -3.6900    0.0000 H   0  0  0  0  0  0  0  0  0  0  0  0
    3.1951    3.6900    0.0000 H   0  0  0  0  0  0  0  0  0  0  0  0
    4.2690   -3.6900    0.0000 H   0  0  0  0  0  0  0  0  0  0  0  0
    6.0010    3.6900    0.0000 H   0  0  0  0  0  0  0  0  0  0  0  0
    2.3291   -2.1900    0.0000 H   0  0  0  0  0  0  0  0  0  0  0  0
    5.1350    2.1900    0.0000 H   0  0  0  0  0  0  0  0  0  0  0  0
    2.3291   -0.8100    0.0000 H   0  0  0  0  0  0  0  0  0  0  0  0
    2.3291    0.8100    0.0000 H   0  0  0  0  0  0  0  0  0  0  0  0
    5.1350   -0.8100    0.0000 H   0  0  0  0  0  0  0  0  0  0  0  0
    5.1350    0.8100    0.0000 H   0  0  0  0  0  0  0  0  0  0  0  0
  1 31  2  0  0  0  0
  2 32  2  0  0  0  0
  3 12  1  0  0  0  0
  3 15  1  0  0  0  0
  3 49  1  0  0  0  0
  4 11  1  0  0  0  0
  4 16  1  0  0  0  0
  4 50  1  0  0  0  0
  5 14  1  0  0  0  0
  5 15  2  0  0  0  0
  6 13  1  0  0  0  0
  6 16  2  0  0  0  0
  7 24  1  0  0  0  0
  7 31  1  0  0  0  0
  7 59  1  0  0  0  0
  8 23  1  0  0  0  0
  8 32  1  0  0  0  0
  8 60  1  0  0  0  0
  9 11  1  0  0  0  0
  9 13  1  0  0  0  0
  9 39  1  0  0  0  0
  9 40  1  0  0  0  0
 10 12  1  0  0  0  0
 10 14  1  0  0  0  0
 10 37  1  0  0  0  0
 10 38  1  0  0  0  0
 11 43  1  0  0  0  0
 11 44  1  0  0  0  0
 12 41  1  0  0  0  0
 12 42  1  0  0  0  0
 13 47  1  0  0  0  0
 13 48  1  0  0  0  0
 14 45  1  0  0  0  0
 14 46  1  0  0  0  0
 15 18  1  0  0  0  0
 16 17  1  0  0  0  0
 17 20  2  0  0  0  0
 17 22  1  0  0  0  0
 18 19  2  0  0  0  0
 18 21  1  0  0  0  0
 19 25  1  0  0  0  0
 19 52  1  0  0  0  0
 20 26  1  0  0  0  0
 20 51  1  0  0  0  0
 21 27  2  0  0  0  0
 21 54  1  0  0  0  0
 22 28  2  0  0  0  0
 22 53  1  0  0  0  0
 23 26  2  0  0  0  0
 23 28  1  0  0  0  0
 24 25  2  0  0  0  0
 24 27  1  0  0  0  0
 25 55  1  0  0  0  0
 26 56  1  0  0  0  0
 27 57  1  0  0  0  0
 28 58  1  0  0  0  0
 29 32  1  0  0  0  0
 29 34  2  0  0  0  0
 29 36  1  0  0  0  0
 30 31  1  0  0  0  0
 30 33  2  0  0  0  0
 30 35  1  0  0  0  0
 33 34  1  0  0  0  0
 33 61  1  0  0  0  0
 34 62  1  0  0  0  0
 35 36  2  0  0  0  0
 35 63  1  0  0  0  0
 36 64  1  0  0  0  0
M  END
> <PUBCHEM_COMPOUND_CID>
6311

> <PUBCHEM_COMPOUND_CANONICALIZED>
1

> <PUBCHEM_CACTVS_COMPLEXITY>
750

> <PUBCHEM_CACTVS_HBOND_ACCEPTOR>
4

> <PUBCHEM_CACTVS_HBOND_DONOR>
4

> <PUBCHEM_CACTVS_ROTATABLE_BOND>
6

> <PUBCHEM_CACTVS_SUBSKEYS>
AAADceB7sAAAAAAAAAAAAAAAAAAAAAAAAAAwYMECAAAAAAABUAAAHgAQAAAADAjBmAQxwILAAACoAidydACCAAElAgAJiIEoZNgIILLA3ZGEIQhglADIyYcYiACOSAAAAAAAAACQAAAAAAAAAAAAAAAAAA==

> <PUBCHEM_IUPAC_OPENEYE_NAME>
N1,N4-bis[4-(1,4,5,6-tetrahydropyrimidin-2-yl)phenyl]terephthalamide

> <PUBCHEM_IUPAC_CAS_NAME>
N1,N4-bis[4-(1,4,5,6-tetrahydropyrimidin-2-yl)phenyl]benzene-1,4-dicarboxamide

> <PUBCHEM_IUPAC_NAME>
1-N,4-N-bis[4-(1,4,5,6-tetrahydropyrimidin-2-yl)phenyl]benzene-1,4-dicarboxamide

> <PUBCHEM_IUPAC_SYSTEMATIC_NAME>
N1,N4-bis[4-(1,4,5,6-tetrahydropyrimidin-2-yl)phenyl]benzene-1,4-dicarboxamide

> <PUBCHEM_IUPAC_TRADITIONAL_NAME>
N,N'-bis[4-(1,4,5,6-tetrahydropyrimidin-2-yl)phenyl]terephthalamide

> <PUBCHEM_IUPAC_INCHI>
InChI=1S/C28H28N6O2/c35-27(33-23-11-7-19(8-12-23)25-29-15-1-16-30-25)21-3-5-22(6-4-21)28(36)34-24-13-9-20(10-14-24)26-31-17-2-18-32-26/h3-14H,1-2,15-18H2,(H,29,30)(H,31,32)(H,33,35)(H,34,36)

> <PUBCHEM_IUPAC_INCHIKEY>
GNXXAEZDXSNKMT-UHFFFAOYSA-N

> <PUBCHEM_XLOGP3_AA>
2.2

> <PUBCHEM_EXACT_MASS>
480.227374

> <PUBCHEM_MOLECULAR_FORMULA>
C28H28N6O2

> <PUBCHEM_MOLECULAR_WEIGHT>
480.56092

> <PUBCHEM_OPENEYE_CAN_SMILES>
C1CNC(=NC1)C2=CC=C(C=C2)NC(=O)C3=CC=C(C=C3)C(=O)NC4=CC=C(C=C4)C5=NCCCN5

> <PUBCHEM_OPENEYE_ISO_SMILES>
C1CNC(=NC1)C2=CC=C(C=C2)NC(=O)C3=CC=C(C=C3)C(=O)NC4=CC=C(C=C4)C5=NCCCN5

> <PUBCHEM_CACTVS_TPSA>
107

> <PUBCHEM_MONOISOTOPIC_WEIGHT>
480.227374

> <PUBCHEM_TOTAL_CHARGE>
0

> <PUBCHEM_HEAVY_ATOM_COUNT>
36

> <PUBCHEM_ATOM_DEF_STEREO_COUNT>
0

> <PUBCHEM_ATOM_UDEF_STEREO_COUNT>
0

> <PUBCHEM_BOND_DEF_STEREO_COUNT>
0

> <PUBCHEM_BOND_UDEF_STEREO_COUNT>
0

> <PUBCHEM_ISOTOPIC_ATOM_COUNT>
0

> <PUBCHEM_COMPONENT_COUNT>
1

> <PUBCHEM_CACTVS_TAUTO_COUNT>
6

> <PUBCHEM_COORDINATE_TYPE>
1
5
255

> <PUBCHEM_BONDANNOTATIONS>
17  20  8
17  22  8
18  19  8
18  21  8
19  25  8
20  26  8
21  27  8
22  28  8
23  26  8
23  28  8
24  25  8
24  27  8
29  34  8
29  36  8
30  33  8
30  35  8
33  34  8
35  36  8

$$$$

