3329
  -OEChem-06251223203D

 34 36  0     1  0  0  0  0  0999 V2000
    0.2845   -1.6816   -0.4124 S   0  0  0  0  0  0  0  0  0  0  0  0
    3.1844   -1.2882   -0.9078 O   0  0  0  0  0  0  0  0  0  0  0  0
   -4.6666   -0.3743    0.7699 O   0  0  0  0  0  0  0  0  0  0  0  0
   -2.2883    1.6841    1.1041 O   0  0  0  0  0  0  0  0  0  0  0  0
   -0.1348    3.0806   -1.0019 O   0  0  0  0  0  0  0  0  0  0  0  0
    1.6454    2.6951    0.3809 O   0  0  0  0  0  0  0  0  0  0  0  0
   -1.0193    0.5940   -0.5656 N   0  0  0  0  0  0  0  0  0  0  0  0
   -1.2884   -0.8319   -0.8078 C   0  0  2  0  0  0  0  0  0  0  0  0
   -2.3425   -0.7484    0.3105 C   0  0  1  0  0  0  0  0  0  0  0  0
   -1.9733    0.7523    0.3989 C   0  0  0  0  0  0  0  0  0  0  0  0
    1.1487   -0.1490   -0.3604 C   0  0  0  0  0  0  0  0  0  0  0  0
   -3.7628   -1.0151   -0.1301 C   0  0  1  0  0  0  0  0  0  0  0  0
    0.3097    0.8995   -0.4202 C   0  0  0  0  0  0  0  0  0  0  0  0
    2.6288   -0.1665   -0.1984 C   0  0  1  0  0  0  0  0  0  0  0  0
    3.0793   -0.3085    1.2476 C   0  0  0  0  0  0  0  0  0  0  0  0
    4.4138   -0.9933    1.0897 C   0  0  0  0  0  0  0  0  0  0  0  0
    4.1402   -1.9392   -0.0584 C   0  0  0  0  0  0  0  0  0  0  0  0
   -4.0609   -2.5097   -0.1547 C   0  0  0  0  0  0  0  0  0  0  0  0
    0.7021    2.3003   -0.2840 C   0  0  0  0  0  0  0  0  0  0  0  0
   -1.6612   -1.0119   -1.8218 H   0  0  0  0  0  0  0  0  0  0  0  0
   -2.0834   -1.2707    1.2417 H   0  0  0  0  0  0  0  0  0  0  0  0
   -3.9580   -0.5997   -1.1260 H   0  0  0  0  0  0  0  0  0  0  0  0
    3.0796    0.7267   -0.6471 H   0  0  0  0  0  0  0  0  0  0  0  0
    2.4045   -0.9515    1.8262 H   0  0  0  0  0  0  0  0  0  0  0  0
    3.1511    0.6523    1.7659 H   0  0  0  0  0  0  0  0  0  0  0  0
    5.1751   -0.2599    0.7988 H   0  0  0  0  0  0  0  0  0  0  0  0
    4.7560   -1.5047    1.9931 H   0  0  0  0  0  0  0  0  0  0  0  0
    5.0405   -2.1775   -0.6313 H   0  0  0  0  0  0  0  0  0  0  0  0
    3.6925   -2.8742    0.2951 H   0  0  0  0  0  0  0  0  0  0  0  0
   -3.9381   -2.9489    0.8415 H   0  0  0  0  0  0  0  0  0  0  0  0
   -5.0991   -2.6879   -0.4539 H   0  0  0  0  0  0  0  0  0  0  0  0
   -3.3978   -3.0372   -0.8471 H   0  0  0  0  0  0  0  0  0  0  0  0
   -4.5667    0.5861    0.6565 H   0  0  0  0  0  0  0  0  0  0  0  0
    0.0984    4.0310   -0.9336 H   0  0  0  0  0  0  0  0  0  0  0  0
  1  8  1  0  0  0  0
  1 11  1  0  0  0  0
  2 14  1  0  0  0  0
  2 17  1  0  0  0  0
  3 12  1  0  0  0  0
  3 33  1  0  0  0  0
  4 10  2  0  0  0  0
  5 19  1  0  0  0  0
  5 34  1  0  0  0  0
  6 19  2  0  0  0  0
  7  8  1  0  0  0  0
  7 10  1  0  0  0  0
  7 13  1  0  0  0  0
  8  9  1  0  0  0  0
  8 20  1  0  0  0  0
  9 10  1  0  0  0  0
  9 12  1  0  0  0  0
  9 21  1  0  0  0  0
 11 13  2  0  0  0  0
 11 14  1  0  0  0  0
 12 18  1  0  0  0  0
 12 22  1  0  0  0  0
 13 19  1  0  0  0  0
 14 15  1  0  0  0  0
 14 23  1  0  0  0  0
 15 16  1  0  0  0  0
 15 24  1  0  0  0  0
 15 25  1  0  0  0  0
 16 17  1  0  0  0  0
 16 26  1  0  0  0  0
 16 27  1  0  0  0  0
 17 28  1  0  0  0  0
 17 29  1  0  0  0  0
 18 30  1  0  0  0  0
 18 31  1  0  0  0  0
 18 32  1  0  0  0  0
M  END
> <PUBCHEM_COMPOUND_CID>
3329

> <PUBCHEM_CONFORMER_RMSD>
0.6

> <PUBCHEM_CONFORMER_DIVERSEORDER>
5
68
41
142
136
86
36
58
65
61
89
148
31
6
79
63
144
124
114
34
112
90
1
47
11
7
19
140
24
143
12
100
75
74
59
78
106
109
81
48
62
113
57
103
121
137
119
17
102
83
130
64
141
13
139
85
138
2
126
29
93
45
125
39
145
117
56
108
60
26
92
21
51
8
147
55
122
110
135
80
9
37
70
53
98
134
146
120
88
94
97
14
49
52
3
82
128
71
131
105
101
132
42
38
87
18
91
25
111
133
40
76
30
96
118
20
95
46
67
43
99
15
127
107
69
28
66
77
50
4
129
23
72
115
44
84
16
32
73
10
54
123
27
33
104
35
22
116

> <PUBCHEM_MMFF94_PARTIAL_CHARGES>
18
1 -0.32
10 0.58
11 -0.04
12 0.28
13 0.12
14 0.42
17 0.28
19 0.71
2 -0.56
3 -0.68
33 0.4
34 0.5
4 -0.57
5 -0.65
6 -0.57
7 -0.39
8 0.44
9 0.05

> <PUBCHEM_EFFECTIVE_ROTOR_COUNT>
4.4

> <PUBCHEM_PHARMACOPHORE_FEATURES>
9
1 2 acceptor
1 3 acceptor
1 3 donor
1 4 acceptor
1 5 acceptor
1 6 acceptor
3 5 6 19 anion
5 2 14 15 16 17 rings
7 1 7 8 9 10 11 13 rings

> <PUBCHEM_HEAVY_ATOM_COUNT>
19

> <PUBCHEM_ATOM_DEF_STEREO_COUNT>
0

> <PUBCHEM_ATOM_UDEF_STEREO_COUNT>
4

> <PUBCHEM_BOND_DEF_STEREO_COUNT>
0

> <PUBCHEM_BOND_UDEF_STEREO_COUNT>
0

> <PUBCHEM_ISOTOPIC_ATOM_COUNT>
0

> <PUBCHEM_COMPONENT_COUNT>
1

> <PUBCHEM_CACTVS_TAUTO_COUNT>
1

> <PUBCHEM_CONFORMER_ID>
00000D0100000005

> <PUBCHEM_MMFF94_ENERGY>
57.5085

> <PUBCHEM_FEATURE_SELFOVERLAP>
45.724

> <PUBCHEM_SHAPE_FINGERPRINT>
10989021 7 18411139108421855244
11132069 177 18264207079056225272
11543360 7 15051724266211429823
11680986 33 18125716781904099130
12032990 46 18410855486146294846
12251169 10 18186807963247139194
12363563 72 18343580741808592858
12553582 1 18413668019499383982
12644460 14 18269263565470873768
12714826 92 17846220011289962407
12892183 10 17603871117484145138
13140716 1 18409168835072117504
14178342 30 18188760781776284003
14787075 74 18059857230070975674
15375462 478 18113054930768752133
15885798 251 18342175591585918210
16945 1 18040435468892851439
17492 89 18265893549800902719
17804303 29 18260543441729749563
1813 80 17845925333863475790
18222031 100 18408324380161396318
19862831 5 12247687079548802223
200 152 16773518853892867858
20028762 73 18187929404957980039
20097449 115 18341899584308505276
20510252 161 18265902530729583698
20559304 39 18263076635121592700
20645477 70 18198069071387536359
20671657 53 18343304734514822791
20871998 22 18411140238319935956
21029758 27 18412541003064133142
21296965 67 18342181080865384956
21501925 9 18408608032644048358
2255824 54 18126560124544534228
22959321 4 18266457607945057047
2297311 6 18335976584654154318
23366157 5 17986388884593420165
23402539 116 18335994128778101703
23419403 2 15871171539218569093
23557571 272 18116704304350758086
23559900 14 18335704901311113931
2748010 2 18268168533541687820
3286 77 18272655593381649263
4409770 3 17841160166158966221
465052 167 18270953562457060563
4990 188 12391518593629999298
5104073 3 18191856843923618659
7364860 26 18191584142879154276
81228 2 18124022692299934412
8863177 126 17558531531948679243
90316 7 18198061576337132808
9709674 26 17983857787921350323

> <PUBCHEM_SHAPE_MULTIPOLES>
360.53
7.78
2.81
1
0.72
1.73
-0.12
-5.88
-2.15
0.06
0.4
-0.3
0.07
-0.26

> <PUBCHEM_SHAPE_SELFOVERLAP>
759.921

> <PUBCHEM_SHAPE_VOLUME>
206.3

> <PUBCHEM_COORDINATE_TYPE>
2
5
10

$$$$

