17395645
  -OEChem-06241222512D

 55 59  0     1  0  0  0  0  0999 V2000
    5.2599   -0.7193    0.0000 O   0  0  0  0  0  0  0  0  0  0  0  0
    3.4088   -1.9684    0.0000 O   0  0  0  0  0  0  0  0  0  0  0  0
    3.4088   -4.2154    0.0000 O   0  0  0  0  0  0  0  0  0  0  0  0
    6.9554   -1.0728    0.0000 N   0  0  0  0  0  0  0  0  0  0  0  0
    5.6681    1.2386    0.0000 N   0  0  0  0  0  0  0  0  0  0  0  0
    6.8547   -2.0678    0.0000 C   0  0  3  0  0  0  0  0  0  0  0  0
    7.7698   -2.4710    0.0000 C   0  0  0  0  0  0  0  0  0  0  0  0
    8.4361   -1.7253    0.0000 C   0  0  0  0  0  0  0  0  0  0  0  0
    7.9328   -0.8612    0.0000 C   0  0  0  0  0  0  0  0  0  0  0  0
    5.9906   -2.5711    0.0000 C   0  0  0  0  0  0  0  0  0  0  0  0
    6.2097   -0.4066    0.0000 C   0  0  0  0  0  0  0  0  0  0  0  0
    6.4139    0.5724    0.0000 C   0  0  0  0  0  0  0  0  0  0  0  0
    5.0846   -2.0572    0.0000 C   0  0  0  0  0  0  0  0  0  0  0  0
    5.9906   -3.6127    0.0000 C   0  0  0  0  0  0  0  0  0  0  0  0
    4.1906   -2.5919    0.0000 C   0  0  0  0  0  0  0  0  0  0  0  0
    5.7691    2.2276    0.0000 C   0  0  0  0  0  0  0  0  0  0  0  0
    4.6968    1.0274    0.0000 C   0  0  0  0  0  0  0  0  0  0  0  0
    5.0846   -4.1266    0.0000 C   0  0  0  0  0  0  0  0  0  0  0  0
    4.1906   -3.5919    0.0000 C   0  0  0  0  0  0  0  0  0  0  0  0
    4.8533    2.6292    0.0000 C   0  0  0  0  0  0  0  0  0  0  0  0
    4.1942    1.8850    0.0000 C   0  0  0  0  0  0  0  0  0  0  0  0
    6.5748    2.8199    0.0000 C   0  0  0  0  0  0  0  0  0  0  0  0
    2.4339   -2.1909    0.0000 C   0  0  0  0  0  0  0  0  0  0  0  0
    4.2951    0.1115    0.0000 C   0  0  0  0  0  0  0  0  0  0  0  0
    2.0000   -3.0919    0.0000 C   0  0  0  0  0  0  0  0  0  0  0  0
    2.4339   -3.9929    0.0000 C   0  0  0  0  0  0  0  0  0  0  0  0
    4.7432    3.6231    0.0000 C   0  0  0  0  0  0  0  0  0  0  0  0
    6.4647    3.8138    0.0000 C   0  0  0  0  0  0  0  0  0  0  0  0
    5.5489    4.2154    0.0000 C   0  0  0  0  0  0  0  0  0  0  0  0
    6.3335   -1.7321    0.0000 H   0  0  0  0  0  0  0  0  0  0  0  0
    7.4619   -3.0091    0.0000 H   0  0  0  0  0  0  0  0  0  0  0  0
    8.2728   -2.8335    0.0000 H   0  0  0  0  0  0  0  0  0  0  0  0
    8.8528   -2.1844    0.0000 H   0  0  0  0  0  0  0  0  0  0  0  0
    8.9363   -1.3589    0.0000 H   0  0  0  0  0  0  0  0  0  0  0  0
    8.4982   -0.6068    0.0000 H   0  0  0  0  0  0  0  0  0  0  0  0
    7.7389   -0.2723    0.0000 H   0  0  0  0  0  0  0  0  0  0  0  0
    6.9896    0.3423    0.0000 H   0  0  0  0  0  0  0  0  0  0  0  0
    6.7404    1.0994    0.0000 H   0  0  0  0  0  0  0  0  0  0  0  0
    5.0774   -1.4373    0.0000 H   0  0  0  0  0  0  0  0  0  0  0  0
    6.5264   -3.9248    0.0000 H   0  0  0  0  0  0  0  0  0  0  0  0
    5.0774   -4.7465    0.0000 H   0  0  0  0  0  0  0  0  0  0  0  0
    3.5771    1.9453    0.0000 H   0  0  0  0  0  0  0  0  0  0  0  0
    7.1426    2.5708    0.0000 H   0  0  0  0  0  0  0  0  0  0  0  0
    2.4339   -1.5709    0.0000 H   0  0  0  0  0  0  0  0  0  0  0  0
    1.8294   -2.0530    0.0000 H   0  0  0  0  0  0  0  0  0  0  0  0
    3.7273    0.3606    0.0000 H   0  0  0  0  0  0  0  0  0  0  0  0
    4.0461   -0.4562    0.0000 H   0  0  0  0  0  0  0  0  0  0  0  0
    4.8629   -0.1375    0.0000 H   0  0  0  0  0  0  0  0  0  0  0  0
    1.5153   -2.7054    0.0000 H   0  0  0  0  0  0  0  0  0  0  0  0
    1.5153   -3.4785    0.0000 H   0  0  0  0  0  0  0  0  0  0  0  0
    1.8294   -4.1308    0.0000 H   0  0  0  0  0  0  0  0  0  0  0  0
    2.4339   -4.6129    0.0000 H   0  0  0  0  0  0  0  0  0  0  0  0
    4.1754    3.8721    0.0000 H   0  0  0  0  0  0  0  0  0  0  0  0
    6.9643    4.1810    0.0000 H   0  0  0  0  0  0  0  0  0  0  0  0
    5.4807    4.8316    0.0000 H   0  0  0  0  0  0  0  0  0  0  0  0
  1 11  2  0  0  0  0
  2 15  1  0  0  0  0
  2 23  1  0  0  0  0
  3 19  1  0  0  0  0
  3 26  1  0  0  0  0
  4  6  1  0  0  0  0
  4  9  1  0  0  0  0
  4 11  1  0  0  0  0
  5 12  1  0  0  0  0
  5 16  1  0  0  0  0
  5 17  1  0  0  0  0
  6  7  1  0  0  0  0
  6 10  1  0  0  0  0
  6 30  1  0  0  0  0
  7  8  1  0  0  0  0
  7 31  1  0  0  0  0
  7 32  1  0  0  0  0
  8  9  1  0  0  0  0
  8 33  1  0  0  0  0
  8 34  1  0  0  0  0
  9 35  1  0  0  0  0
  9 36  1  0  0  0  0
 10 13  2  0  0  0  0
 10 14  1  0  0  0  0
 11 12  1  0  0  0  0
 12 37  1  0  0  0  0
 12 38  1  0  0  0  0
 13 15  1  0  0  0  0
 13 39  1  0  0  0  0
 14 18  2  0  0  0  0
 14 40  1  0  0  0  0
 15 19  2  0  0  0  0
 16 20  1  0  0  0  0
 16 22  2  0  0  0  0
 17 21  2  0  0  0  0
 17 24  1  0  0  0  0
 18 19  1  0  0  0  0
 18 41  1  0  0  0  0
 20 21  1  0  0  0  0
 20 27  2  0  0  0  0
 21 42  1  0  0  0  0
 22 28  1  0  0  0  0
 22 43  1  0  0  0  0
 23 25  1  0  0  0  0
 23 44  1  0  0  0  0
 23 45  1  0  0  0  0
 24 46  1  0  0  0  0
 24 47  1  0  0  0  0
 24 48  1  0  0  0  0
 25 26  1  0  0  0  0
 25 49  1  0  0  0  0
 25 50  1  0  0  0  0
 26 51  1  0  0  0  0
 26 52  1  0  0  0  0
 27 29  1  0  0  0  0
 27 53  1  0  0  0  0
 28 29  2  0  0  0  0
 28 54  1  0  0  0  0
 29 55  1  0  0  0  0
M  END
> <PUBCHEM_COMPOUND_CID>
17395645

> <PUBCHEM_COMPOUND_CANONICALIZED>
1

> <PUBCHEM_CACTVS_COMPLEXITY>
585

> <PUBCHEM_CACTVS_HBOND_ACCEPTOR>
3

> <PUBCHEM_CACTVS_HBOND_DONOR>
0

> <PUBCHEM_CACTVS_ROTATABLE_BOND>
3

> <PUBCHEM_CACTVS_SUBSKEYS>
AAADceB7MAAAAAAAAAAAAAAAAAAAAWLAAAAwYAAABIAAAFgB9AAAHgAAAAAADCzhngYyxvMMFACoAyVyVACCiCAhIiAI2CC+7JgNZuLEsbuWOCrlxhHK6Aew0LMOIAABAAACQABAAAIAAASAAAAAAAAAAA==

> <PUBCHEM_IUPAC_OPENEYE_NAME>
1-[2-(3,4-dihydro-2H-1,5-benzodioxepin-7-yl)pyrrolidin-1-yl]-2-(2-methylindol-1-yl)ethanone

> <PUBCHEM_IUPAC_CAS_NAME>
1-[2-(3,4-dihydro-2H-1,5-benzodioxepin-7-yl)-1-pyrrolidinyl]-2-(2-methyl-1-indolyl)ethanone

> <PUBCHEM_IUPAC_NAME>
1-[2-(3,4-dihydro-2H-1,5-benzodioxepin-7-yl)pyrrolidin-1-yl]-2-(2-methylindol-1-yl)ethanone

> <PUBCHEM_IUPAC_SYSTEMATIC_NAME>
1-[2-(3,4-dihydro-2H-1,5-benzodioxepin-7-yl)pyrrolidin-1-yl]-2-(2-methylindol-1-yl)ethanone

> <PUBCHEM_IUPAC_TRADITIONAL_NAME>
1-[2-(3,4-dihydro-2H-1,5-benzodioxepin-7-yl)pyrrolidino]-2-(2-methylindol-1-yl)ethanone

> <PUBCHEM_IUPAC_INCHI>
InChI=1S/C24H26N2O3/c1-17-14-18-6-2-3-7-21(18)26(17)16-24(27)25-11-4-8-20(25)19-9-10-22-23(15-19)29-13-5-12-28-22/h2-3,6-7,9-10,14-15,20H,4-5,8,11-13,16H2,1H3

> <PUBCHEM_IUPAC_INCHIKEY>
NBWYOHKOWACYQI-UHFFFAOYSA-N

> <PUBCHEM_XLOGP3_AA>
4.1

> <PUBCHEM_EXACT_MASS>
390.194343

> <PUBCHEM_MOLECULAR_FORMULA>
C24H26N2O3

> <PUBCHEM_MOLECULAR_WEIGHT>
390.47484

> <PUBCHEM_OPENEYE_CAN_SMILES>
CC1=CC2=CC=CC=C2N1CC(=O)N3CCCC3C4=CC5=C(C=C4)OCCCO5

> <PUBCHEM_OPENEYE_ISO_SMILES>
CC1=CC2=CC=CC=C2N1CC(=O)N3CCCC3C4=CC5=C(C=C4)OCCCO5

> <PUBCHEM_CACTVS_TPSA>
43.7

> <PUBCHEM_MONOISOTOPIC_WEIGHT>
390.194343

> <PUBCHEM_TOTAL_CHARGE>
0

> <PUBCHEM_HEAVY_ATOM_COUNT>
29

> <PUBCHEM_ATOM_DEF_STEREO_COUNT>
0

> <PUBCHEM_ATOM_UDEF_STEREO_COUNT>
1

> <PUBCHEM_BOND_DEF_STEREO_COUNT>
0

> <PUBCHEM_BOND_UDEF_STEREO_COUNT>
0

> <PUBCHEM_ISOTOPIC_ATOM_COUNT>
0

> <PUBCHEM_COMPONENT_COUNT>
1

> <PUBCHEM_CACTVS_TAUTO_COUNT>
1

> <PUBCHEM_COORDINATE_TYPE>
1
5
255

> <PUBCHEM_BONDANNOTATIONS>
10  13  8
10  14  8
13  15  8
14  18  8
15  19  8
16  20  8
16  22  8
17  21  8
18  19  8
20  21  8
20  27  8
22  28  8
27  29  8
28  29  8
5  16  8
5  17  8
6  10  3

$$$$

