17396149
  -OEChem-06241222542D

 45 47  0     1  0  0  0  0  0999 V2000
    2.8660    5.0000    0.0000 F   0  0  0  0  0  0  0  0  0  0  0  0
    2.8660   -4.0000    0.0000 O   0  0  0  0  0  0  0  0  0  0  0  0
    4.5981    1.0000    0.0000 O   0  0  0  0  0  0  0  0  0  0  0  0
    6.3776   -0.9067    0.0000 N   0  0  0  0  0  0  0  0  0  0  0  0
    3.7320   -0.5000    0.0000 N   0  0  0  0  0  0  0  0  0  0  0  0
    5.5686    0.4945    0.0000 N   0  0  0  0  0  0  0  0  0  0  0  0
    2.8660    1.0000    0.0000 N   0  0  0  0  0  0  0  0  0  0  0  0
    4.5981   -1.0000    0.0000 C   0  0  3  0  0  0  0  0  0  0  0  0
    5.4641   -0.5000    0.0000 C   0  0  0  0  0  0  0  0  0  0  0  0
    4.5981   -2.0000    0.0000 C   0  0  0  0  0  0  0  0  0  0  0  0
    3.7320   -2.5000    0.0000 C   0  0  0  0  0  0  0  0  0  0  0  0
    5.4641   -2.5000    0.0000 C   0  0  0  0  0  0  0  0  0  0  0  0
    7.0468   -0.1636    0.0000 C   0  0  0  0  0  0  0  0  0  0  0  0
    6.5856   -1.8849    0.0000 C   0  0  0  0  0  0  0  0  0  0  0  0
    3.7320   -3.5000    0.0000 C   0  0  0  0  0  0  0  0  0  0  0  0
    6.5468    0.7024    0.0000 C   0  0  0  0  0  0  0  0  0  0  0  0
    3.7320    0.5000    0.0000 C   0  0  0  0  0  0  0  0  0  0  0  0
    5.4641   -3.5000    0.0000 C   0  0  0  0  0  0  0  0  0  0  0  0
    4.5981   -4.0000    0.0000 C   0  0  0  0  0  0  0  0  0  0  0  0
    2.8660    2.0000    0.0000 C   0  0  0  0  0  0  0  0  0  0  0  0
    3.7320    2.5000    0.0000 C   0  0  0  0  0  0  0  0  0  0  0  0
    2.0000    2.5000    0.0000 C   0  0  0  0  0  0  0  0  0  0  0  0
    2.8660   -5.0000    0.0000 C   0  0  0  0  0  0  0  0  0  0  0  0
    3.7320    3.5000    0.0000 C   0  0  0  0  0  0  0  0  0  0  0  0
    2.0000    3.5000    0.0000 C   0  0  0  0  0  0  0  0  0  0  0  0
    2.8660    4.0000    0.0000 C   0  0  0  0  0  0  0  0  0  0  0  0
    4.5981   -0.3800    0.0000 H   0  0  0  0  0  0  0  0  0  0  0  0
    3.1951   -0.8100    0.0000 H   0  0  0  0  0  0  0  0  0  0  0  0
    3.1951   -2.1900    0.0000 H   0  0  0  0  0  0  0  0  0  0  0  0
    6.0010   -2.1900    0.0000 H   0  0  0  0  0  0  0  0  0  0  0  0
    7.6634   -0.2284    0.0000 H   0  0  0  0  0  0  0  0  0  0  0  0
    5.9791   -2.0138    0.0000 H   0  0  0  0  0  0  0  0  0  0  0  0
    6.7145   -2.4913    0.0000 H   0  0  0  0  0  0  0  0  0  0  0  0
    7.1920   -1.7560    0.0000 H   0  0  0  0  0  0  0  0  0  0  0  0
    6.7990    1.2688    0.0000 H   0  0  0  0  0  0  0  0  0  0  0  0
    6.0010   -3.8100    0.0000 H   0  0  0  0  0  0  0  0  0  0  0  0
    4.5981   -4.6200    0.0000 H   0  0  0  0  0  0  0  0  0  0  0  0
    2.3291    0.6900    0.0000 H   0  0  0  0  0  0  0  0  0  0  0  0
    4.2690    2.1900    0.0000 H   0  0  0  0  0  0  0  0  0  0  0  0
    1.4631    2.1900    0.0000 H   0  0  0  0  0  0  0  0  0  0  0  0
    4.2690    3.8100    0.0000 H   0  0  0  0  0  0  0  0  0  0  0  0
    1.4631    3.8100    0.0000 H   0  0  0  0  0  0  0  0  0  0  0  0
    2.2460   -5.0000    0.0000 H   0  0  0  0  0  0  0  0  0  0  0  0
    2.8660   -5.6200    0.0000 H   0  0  0  0  0  0  0  0  0  0  0  0
    3.4860   -5.0000    0.0000 H   0  0  0  0  0  0  0  0  0  0  0  0
  1 26  1  0  0  0  0
  2 15  1  0  0  0  0
  2 23  1  0  0  0  0
  3 17  2  0  0  0  0
  4  9  1  0  0  0  0
  4 13  1  0  0  0  0
  4 14  1  0  0  0  0
  5  8  1  0  0  0  0
  5 17  1  0  0  0  0
  5 28  1  0  0  0  0
  6  9  2  0  0  0  0
  6 16  1  0  0  0  0
  7 17  1  0  0  0  0
  7 20  1  0  0  0  0
  7 38  1  0  0  0  0
  8  9  1  0  0  0  0
  8 10  1  0  0  0  0
  8 27  1  0  0  0  0
 10 11  2  0  0  0  0
 10 12  1  0  0  0  0
 11 15  1  0  0  0  0
 11 29  1  0  0  0  0
 12 18  2  0  0  0  0
 12 30  1  0  0  0  0
 13 16  2  0  0  0  0
 13 31  1  0  0  0  0
 14 32  1  0  0  0  0
 14 33  1  0  0  0  0
 14 34  1  0  0  0  0
 15 19  2  0  0  0  0
 16 35  1  0  0  0  0
 18 19  1  0  0  0  0
 18 36  1  0  0  0  0
 19 37  1  0  0  0  0
 20 21  2  0  0  0  0
 20 22  1  0  0  0  0
 21 24  1  0  0  0  0
 21 39  1  0  0  0  0
 22 25  2  0  0  0  0
 22 40  1  0  0  0  0
 23 43  1  0  0  0  0
 23 44  1  0  0  0  0
 23 45  1  0  0  0  0
 24 26  2  0  0  0  0
 24 41  1  0  0  0  0
 25 26  1  0  0  0  0
 25 42  1  0  0  0  0
M  END
> <PUBCHEM_COMPOUND_CID>
17396149

> <PUBCHEM_COMPOUND_CANONICALIZED>
1

> <PUBCHEM_CACTVS_COMPLEXITY>
459

> <PUBCHEM_CACTVS_HBOND_ACCEPTOR>
4

> <PUBCHEM_CACTVS_HBOND_DONOR>
2

> <PUBCHEM_CACTVS_ROTATABLE_BOND>
5

> <PUBCHEM_CACTVS_SUBSKEYS>
AAADceB7sQAAAAAAAAAAAAAAAAAAAWAAAAAwYAAAAAAAAAAB0AAAHwAQAAAADCzBmw4/1pfMFACoAjZndACCiC0xMqAJyIA+fIiMbiLEuZuUMChs1hPI6Cew0LIOAAABAAAAAAAAAAIAAAAAAAAAAAAAAA==

> <PUBCHEM_IUPAC_OPENEYE_NAME>
1-(4-fluorophenyl)-3-[(3-methoxyphenyl)-(1-methylimidazol-2-yl)methyl]urea

> <PUBCHEM_IUPAC_CAS_NAME>
1-(4-fluorophenyl)-3-[(3-methoxyphenyl)-(1-methyl-2-imidazolyl)methyl]urea

> <PUBCHEM_IUPAC_NAME>
1-(4-fluorophenyl)-3-[(3-methoxyphenyl)-(1-methylimidazol-2-yl)methyl]urea

> <PUBCHEM_IUPAC_SYSTEMATIC_NAME>
1-(4-fluorophenyl)-3-[(3-methoxyphenyl)-(1-methylimidazol-2-yl)methyl]urea

> <PUBCHEM_IUPAC_TRADITIONAL_NAME>
1-(4-fluorophenyl)-3-[(3-methoxyphenyl)-(1-methylimidazol-2-yl)methyl]urea

> <PUBCHEM_IUPAC_INCHI>
InChI=1S/C19H19FN4O2/c1-24-11-10-21-18(24)17(13-4-3-5-16(12-13)26-2)23-19(25)22-15-8-6-14(20)7-9-15/h3-12,17H,1-2H3,(H2,22,23,25)

> <PUBCHEM_IUPAC_INCHIKEY>
GLUUXSJKNJQCJP-UHFFFAOYSA-N

> <PUBCHEM_XLOGP3_AA>
2.3

> <PUBCHEM_EXACT_MASS>
354.149204

> <PUBCHEM_MOLECULAR_FORMULA>
C19H19FN4O2

> <PUBCHEM_MOLECULAR_WEIGHT>
354.378163

> <PUBCHEM_OPENEYE_CAN_SMILES>
CN1C=CN=C1C(C2=CC(=CC=C2)OC)NC(=O)NC3=CC=C(C=C3)F

> <PUBCHEM_OPENEYE_ISO_SMILES>
CN1C=CN=C1C(C2=CC(=CC=C2)OC)NC(=O)NC3=CC=C(C=C3)F

> <PUBCHEM_CACTVS_TPSA>
68.2

> <PUBCHEM_MONOISOTOPIC_WEIGHT>
354.149204

> <PUBCHEM_TOTAL_CHARGE>
0

> <PUBCHEM_HEAVY_ATOM_COUNT>
26

> <PUBCHEM_ATOM_DEF_STEREO_COUNT>
0

> <PUBCHEM_ATOM_UDEF_STEREO_COUNT>
1

> <PUBCHEM_BOND_DEF_STEREO_COUNT>
0

> <PUBCHEM_BOND_UDEF_STEREO_COUNT>
0

> <PUBCHEM_ISOTOPIC_ATOM_COUNT>
0

> <PUBCHEM_COMPONENT_COUNT>
1

> <PUBCHEM_CACTVS_TAUTO_COUNT>
3

> <PUBCHEM_COORDINATE_TYPE>
1
5
255

> <PUBCHEM_BONDANNOTATIONS>
10  11  8
10  12  8
11  15  8
12  18  8
13  16  8
15  19  8
18  19  8
20  21  8
20  22  8
21  24  8
22  25  8
24  26  8
25  26  8
4  13  8
4  9  8
8  5  3
6  16  8
6  9  8

$$$$

