3785
  -OEChem-06251223403D

 36 38  0     0  0  0  0  0  0999 V2000
    0.3173    2.1829   -0.9141 O   0  0  0  0  0  0  0  0  0  0  0  0
    0.0689   -2.4685   -0.6260 O   0  0  0  0  0  0  0  0  0  0  0  0
    5.5266   -1.3069    0.8578 O   0  0  0  0  0  0  0  0  0  0  0  0
    6.5110    1.1275    1.5059 O   0  0  0  0  0  0  0  0  0  0  0  0
    0.2319   -0.1510   -0.8489 N   0  0  0  0  0  0  0  0  0  0  0  0
    5.5350    0.9772    0.5119 N   0  0  0  0  0  0  0  0  0  0  0  0
   -2.4091    0.0489    0.0668 C   0  0  0  0  0  0  0  0  0  0  0  0
    1.5879   -0.2578   -1.3769 C   0  0  0  0  0  0  0  0  0  0  0  0
   -1.6997    1.2226   -0.2240 C   0  0  0  0  0  0  0  0  0  0  0  0
   -1.8321   -1.2212   -0.0701 C   0  0  0  0  0  0  0  0  0  0  0  0
    2.6437   -0.2256   -0.2774 C   0  0  0  0  0  0  0  0  0  0  0  0
   -0.2987    1.1424   -0.6941 C   0  0  0  0  0  0  0  0  0  0  0  0
   -0.4346   -1.3505   -0.5376 C   0  0  0  0  0  0  0  0  0  0  0  0
   -3.7500    0.1496    0.5157 C   0  0  0  0  0  0  0  0  0  0  0  0
    4.0653   -0.3597   -0.8236 C   0  0  0  0  0  0  0  0  0  0  0  0
   -2.3023    2.4783   -0.0750 C   0  0  0  0  0  0  0  0  0  0  0  0
   -2.5646   -2.3764    0.2306 C   0  0  0  0  0  0  0  0  0  0  0  0
   -4.3395    1.4147    0.6589 C   0  0  0  0  0  0  0  0  0  0  0  0
   -4.4707   -1.0170    0.8120 C   0  0  0  0  0  0  0  0  0  0  0  0
   -3.6193    2.5705    0.3654 C   0  0  0  0  0  0  0  0  0  0  0  0
   -3.8809   -2.2710    0.6700 C   0  0  0  0  0  0  0  0  0  0  0  0
    5.1140   -0.3090    0.2727 C   0  0  0  0  0  0  0  0  0  0  0  0
    1.6805   -1.1888   -1.9488 H   0  0  0  0  0  0  0  0  0  0  0  0
    1.7652    0.5650   -2.0798 H   0  0  0  0  0  0  0  0  0  0  0  0
    2.4556   -1.0314    0.4436 H   0  0  0  0  0  0  0  0  0  0  0  0
    2.5567    0.7085    0.2920 H   0  0  0  0  0  0  0  0  0  0  0  0
    4.1805   -1.3146   -1.3500 H   0  0  0  0  0  0  0  0  0  0  0  0
    4.2651    0.4310   -1.5571 H   0  0  0  0  0  0  0  0  0  0  0  0
   -1.7632    3.3952   -0.2975 H   0  0  0  0  0  0  0  0  0  0  0  0
   -2.1282   -3.3663    0.1278 H   0  0  0  0  0  0  0  0  0  0  0  0
   -5.3675    1.5115    1.0020 H   0  0  0  0  0  0  0  0  0  0  0  0
   -5.5009   -0.9593    1.1576 H   0  0  0  0  0  0  0  0  0  0  0  0
   -4.0864    3.5443    0.4804 H   0  0  0  0  0  0  0  0  0  0  0  0
   -4.4491   -3.1671    0.9027 H   0  0  0  0  0  0  0  0  0  0  0  0
    5.1230    1.8248    0.1388 H   0  0  0  0  0  0  0  0  0  0  0  0
    7.3142    1.1376    0.9580 H   0  0  0  0  0  0  0  0  0  0  0  0
  1 12  2  0  0  0  0
  2 13  2  0  0  0  0
  3 22  2  0  0  0  0
  4  6  1  0  0  0  0
  4 36  1  0  0  0  0
  5  8  1  0  0  0  0
  5 12  1  0  0  0  0
  5 13  1  0  0  0  0
  6 22  1  0  0  0  0
  6 35  1  0  0  0  0
  7  9  1  0  0  0  0
  7 10  1  0  0  0  0
  7 14  2  0  0  0  0
  8 11  1  0  0  0  0
  8 23  1  0  0  0  0
  8 24  1  0  0  0  0
  9 12  1  0  0  0  0
  9 16  2  0  0  0  0
 10 13  1  0  0  0  0
 10 17  2  0  0  0  0
 11 15  1  0  0  0  0
 11 25  1  0  0  0  0
 11 26  1  0  0  0  0
 14 18  1  0  0  0  0
 14 19  1  0  0  0  0
 15 22  1  0  0  0  0
 15 27  1  0  0  0  0
 15 28  1  0  0  0  0
 16 20  1  0  0  0  0
 16 29  1  0  0  0  0
 17 21  1  0  0  0  0
 17 30  1  0  0  0  0
 18 20  2  0  0  0  0
 18 31  1  0  0  0  0
 19 21  2  0  0  0  0
 19 32  1  0  0  0  0
 20 33  1  0  0  0  0
 21 34  1  0  0  0  0
M  END
> <PUBCHEM_COMPOUND_CID>
3785

> <PUBCHEM_CONFORMER_RMSD>
0.8

> <PUBCHEM_CONFORMER_DIVERSEORDER>
2
8
10
3
11
9
4
13
1
7
12
5
6

> <PUBCHEM_MMFF94_PARTIAL_CHARGES>
27
1 -0.57
10 0.09
12 0.54
13 0.54
15 0.06
16 -0.15
17 -0.15
18 -0.15
19 -0.15
2 -0.57
20 -0.15
21 -0.15
22 0.57
29 0.15
3 -0.57
30 0.15
31 0.15
32 0.15
33 0.15
34 0.15
35 0.37
36 0.4
4 -0.44
5 -0.42
6 -0.39
8 0.3
9 0.09

> <PUBCHEM_EFFECTIVE_ROTOR_COUNT>
5.2

> <PUBCHEM_PHARMACOPHORE_FEATURES>
7
1 1 acceptor
1 2 acceptor
1 3 acceptor
1 6 donor
6 5 7 9 10 12 13 rings
6 7 10 14 17 19 21 rings
6 7 9 14 16 18 20 rings

> <PUBCHEM_HEAVY_ATOM_COUNT>
22

> <PUBCHEM_ATOM_DEF_STEREO_COUNT>
0

> <PUBCHEM_ATOM_UDEF_STEREO_COUNT>
0

> <PUBCHEM_BOND_DEF_STEREO_COUNT>
0

> <PUBCHEM_BOND_UDEF_STEREO_COUNT>
0

> <PUBCHEM_ISOTOPIC_ATOM_COUNT>
0

> <PUBCHEM_COMPONENT_COUNT>
1

> <PUBCHEM_CACTVS_TAUTO_COUNT>
3

> <PUBCHEM_CONFORMER_ID>
00000EC900000002

> <PUBCHEM_MMFF94_ENERGY>
54.2032

> <PUBCHEM_FEATURE_SELFOVERLAP>
35.596

> <PUBCHEM_SHAPE_FINGERPRINT>
10319926 262 18337396041227918130
10411042 1 18122336875283187015
10493431 412 18192697068291390497
10967382 1 18052519244275853805
11045977 3 18260829323754635432
11132069 177 18340473569372129213
12035758 1 18339622522256905633
12107183 9 17839185456671630738
12236239 1 17632570552522081262
12403259 415 17968084348690727174
12596602 18 17917433099299840560
12838862 33 18340211877859296113
12839892 36 18413105090983940814
12892183 10 18411983559697031278
13140716 1 18266722599026728611
13403585 85 18408042883888898328
14178342 30 18269261508429160021
14341114 176 18409164420552261688
14341114 328 18131348592858607204
14420673 8 17981044425719246338
14844126 61 18342173307207351003
15099037 37 18409724067227244679
15183329 4 8430326736156133112
15685185 35 16623459461804198748
16945 1 18267561625299027111
1813 80 16845283978033084214
19377110 9 17917712358490358860
200 152 15052017862060090532
21033648 29 17749400268991653104
21065199 12 18408323302778563574
21637258 2 15625933202000918521
21859007 373 17127616728099899597
22182313 1 18044912766589401231
2334 1 17905586836721181749
23366157 5 17699272283645656684
23402539 116 18409730647539401791
23557571 272 18189874539626036486
23559900 14 18191563437100225638
2748010 2 18049141303994972445
4409770 3 17559405857950509061
5104073 3 18411145762164811450
5364581 5 18190752921074565096
53917941 68 18269283524885635677
5924683 9 18336268959477224735
9981440 41 18340760546497975531

> <PUBCHEM_SHAPE_MULTIPOLES>
419.31
11.97
2.74
1.04
21.68
0.17
0.03
1
6.07
-3.15
0.12
0.9
0.06
0.56

> <PUBCHEM_SHAPE_SELFOVERLAP>
918.567

> <PUBCHEM_SHAPE_VOLUME>
225.7

> <PUBCHEM_COORDINATE_TYPE>
2
5
10

$$$$

