9518
  -OEChem-06261203463D

 32 31  0     0  0  0  0  0  0999 V2000
    6.0861    0.9445    0.7254 F   0  0  0  0  0  0  0  0  0  0  0  0
   -3.9564    0.5250   -0.0675 O   0  0  0  0  0  0  0  0  0  0  0  0
   -2.9285   -1.5029    0.3343 O   0  0  0  0  0  0  0  0  0  0  0  0
    2.1572   -0.5538   -0.0637 C   0  0  0  0  0  0  0  0  0  0  0  0
    0.9382    0.3678   -0.1378 C   0  0  0  0  0  0  0  0  0  0  0  0
    3.4595    0.2316   -0.2292 C   0  0  0  0  0  0  0  0  0  0  0  0
   -0.3655   -0.4247   -0.0051 C   0  0  0  0  0  0  0  0  0  0  0  0
    4.6760   -0.6948   -0.1912 C   0  0  0  0  0  0  0  0  0  0  0  0
   -1.6017    0.4643   -0.1066 C   0  0  0  0  0  0  0  0  0  0  0  0
    5.9744    0.0830   -0.3203 C   0  0  0  0  0  0  0  0  0  0  0  0
   -2.8853   -0.3052    0.0837 C   0  0  0  0  0  0  0  0  0  0  0  0
   -5.2390   -0.0905    0.0871 C   0  0  0  0  0  0  0  0  0  0  0  0
   -6.3151    0.9559   -0.1091 C   0  0  0  0  0  0  0  0  0  0  0  0
    2.0880   -1.3167   -0.8488 H   0  0  0  0  0  0  0  0  0  0  0  0
    2.1635   -1.0798    0.8986 H   0  0  0  0  0  0  0  0  0  0  0  0
    0.9416    0.9064   -1.0932 H   0  0  0  0  0  0  0  0  0  0  0  0
    0.9943    1.1197    0.6585 H   0  0  0  0  0  0  0  0  0  0  0  0
    3.4442    0.7751   -1.1817 H   0  0  0  0  0  0  0  0  0  0  0  0
    3.5377    0.9802    0.5685 H   0  0  0  0  0  0  0  0  0  0  0  0
   -0.3703   -0.9531    0.9567 H   0  0  0  0  0  0  0  0  0  0  0  0
   -0.4079   -1.1962   -0.7844 H   0  0  0  0  0  0  0  0  0  0  0  0
    4.6819   -1.2401    0.7598 H   0  0  0  0  0  0  0  0  0  0  0  0
    4.6109   -1.4326   -0.9987 H   0  0  0  0  0  0  0  0  0  0  0  0
   -1.5594    1.2442    0.6620 H   0  0  0  0  0  0  0  0  0  0  0  0
   -1.6304    0.9399   -1.0933 H   0  0  0  0  0  0  0  0  0  0  0  0
    6.8361   -0.5901   -0.2946 H   0  0  0  0  0  0  0  0  0  0  0  0
    6.0075    0.6646   -1.2461 H   0  0  0  0  0  0  0  0  0  0  0  0
   -5.3551   -0.8850   -0.6585 H   0  0  0  0  0  0  0  0  0  0  0  0
   -5.3193   -0.5201    1.0919 H   0  0  0  0  0  0  0  0  0  0  0  0
   -7.3112    0.5184    0.0024 H   0  0  0  0  0  0  0  0  0  0  0  0
   -6.2015    1.7667    0.6181 H   0  0  0  0  0  0  0  0  0  0  0  0
   -6.2366    1.4077   -1.1035 H   0  0  0  0  0  0  0  0  0  0  0  0
  1 10  1  0  0  0  0
  2 11  1  0  0  0  0
  2 12  1  0  0  0  0
  3 11  2  0  0  0  0
  4  5  1  0  0  0  0
  4  6  1  0  0  0  0
  4 14  1  0  0  0  0
  4 15  1  0  0  0  0
  5  7  1  0  0  0  0
  5 16  1  0  0  0  0
  5 17  1  0  0  0  0
  6  8  1  0  0  0  0
  6 18  1  0  0  0  0
  6 19  1  0  0  0  0
  7  9  1  0  0  0  0
  7 20  1  0  0  0  0
  7 21  1  0  0  0  0
  8 10  1  0  0  0  0
  8 22  1  0  0  0  0
  8 23  1  0  0  0  0
  9 11  1  0  0  0  0
  9 24  1  0  0  0  0
  9 25  1  0  0  0  0
 10 26  1  0  0  0  0
 10 27  1  0  0  0  0
 12 13  1  0  0  0  0
 12 28  1  0  0  0  0
 12 29  1  0  0  0  0
 13 30  1  0  0  0  0
 13 31  1  0  0  0  0
 13 32  1  0  0  0  0
M  END
> <PUBCHEM_COMPOUND_CID>
9518

> <PUBCHEM_CONFORMER_RMSD>
1

> <PUBCHEM_CONFORMER_DIVERSEORDER>
1
85
35
34
58
31
450
37
352
39
26
6
13
4
485
452
291
12
86
40
3
9
201
132
303
396
413
469
8
274
316
61
155
24
245
29
394
145
240
126
2
81
49
51
65
479
187
160
63
323
56
79
298
180
147
55
402
354
428
225
360
456
395
476
18
481
214
62
207
314
41
73
108
337
449

> <PUBCHEM_MMFF94_PARTIAL_CHARGES>
7
1 -0.34
10 0.34
11 0.66
12 0.28
2 -0.43
3 -0.57
9 0.06

> <PUBCHEM_EFFECTIVE_ROTOR_COUNT>
9

> <PUBCHEM_PHARMACOPHORE_FEATURES>
3
1 3 acceptor
3 4 6 8 hydrophobe
3 5 7 9 hydrophobe

> <PUBCHEM_HEAVY_ATOM_COUNT>
13

> <PUBCHEM_ATOM_DEF_STEREO_COUNT>
0

> <PUBCHEM_ATOM_UDEF_STEREO_COUNT>
0

> <PUBCHEM_BOND_DEF_STEREO_COUNT>
0

> <PUBCHEM_BOND_UDEF_STEREO_COUNT>
0

> <PUBCHEM_ISOTOPIC_ATOM_COUNT>
0

> <PUBCHEM_COMPONENT_COUNT>
1

> <PUBCHEM_CACTVS_TAUTO_COUNT>
1

> <PUBCHEM_CONFORMER_ID>
0000252E00000001

> <PUBCHEM_MMFF94_ENERGY>
2.1795

> <PUBCHEM_FEATURE_SELFOVERLAP>
15.223

> <PUBCHEM_SHAPE_FINGERPRINT>
10968037 39 18333731316973698285
11401426 45 18342738511653949030
117890 112 18408602586599234184
12091667 2 18409165511610844903
12714333 28 18187083961765890632
12815109 37 18410855468718102893
13533116 47 17895757421512223878
14123238 8 13767924624427965774
14251718 22 17530966877954449159
14729087 3 18341618143992466629
15048467 5 18411699898038362077
15242439 84 18259984868348015986
15501527 16 18341894130158988141
17834072 33 5906041552306426466
17834076 25 18341894099751026863
187816 3 14996002146792613599
20279233 1 18040705974713323487
20281389 69 18201157736609045861
20621476 66 18410851097122312805
20645477 56 18272934934038922173
20645477 70 17241320416936810406
20681677 155 18201440263810475003
20767249 213 17967814950882360717
21130983 4 18412541003296507812
220451 1 15841550761013252754
22485316 2 18411700985060843766
23218964 4 18343301487413993509
23402539 116 18412830165884740543
23521765 1 18335420174959647093
23559900 14 18260836960106163897
300161 21 18413394241119664554
42788 4 18334012800418959220
4463277 17 18408885143955299633
8209 1 18334575754551368325

> <PUBCHEM_SHAPE_MULTIPOLES>
248.52
16.72
0.99
0.65
2.87
0.13
0
-3.56
-0.4
-0.35
-0.06
0.24
-0.03
0.42

> <PUBCHEM_SHAPE_SELFOVERLAP>
454.227

> <PUBCHEM_SHAPE_VOLUME>
158.1

> <PUBCHEM_COORDINATE_TYPE>
2
5
10

$$$$

