12790
  -OEChem-06261207222D

 15 16  0     0  0  0  0  0  0999 V2000
    2.0000   -1.6550    0.0000 F   0  0  0  0  0  0  0  0  0  0  0  0
    5.5443    0.1497    0.0000 N   0  0  0  0  0  0  0  0  0  0  0  0
    5.5443   -1.4597    0.0000 N   0  0  0  0  0  0  0  0  0  0  0  0
    3.7320   -1.6550    0.0000 N   0  0  0  0  0  0  0  0  0  0  0  0
    2.8660   -0.1550    0.0000 N   0  0  0  0  0  0  0  0  0  0  0  0
    3.7320    1.3450    0.0000 N   0  0  0  0  0  0  0  0  0  0  0  0
    4.5981   -0.1550    0.0000 C   0  0  0  0  0  0  0  0  0  0  0  0
    4.5981   -1.1550    0.0000 C   0  0  0  0  0  0  0  0  0  0  0  0
    3.7320    0.3450    0.0000 C   0  0  0  0  0  0  0  0  0  0  0  0
    6.1279   -0.6550    0.0000 C   0  0  0  0  0  0  0  0  0  0  0  0
    2.8660   -1.1550    0.0000 C   0  0  0  0  0  0  0  0  0  0  0  0
    5.7369    0.7391    0.0000 H   0  0  0  0  0  0  0  0  0  0  0  0
    6.7479   -0.6550    0.0000 H   0  0  0  0  0  0  0  0  0  0  0  0
    3.1951    1.6550    0.0000 H   0  0  0  0  0  0  0  0  0  0  0  0
    4.2690    1.6550    0.0000 H   0  0  0  0  0  0  0  0  0  0  0  0
  1 11  1  0  0  0  0
  2  7  1  0  0  0  0
  2 10  1  0  0  0  0
  2 12  1  0  0  0  0
  3  8  1  0  0  0  0
  3 10  2  0  0  0  0
  4  8  2  0  0  0  0
  4 11  1  0  0  0  0
  5  9  1  0  0  0  0
  5 11  2  0  0  0  0
  6  9  1  0  0  0  0
  6 14  1  0  0  0  0
  6 15  1  0  0  0  0
  7  8  1  0  0  0  0
  7  9  2  0  0  0  0
 10 13  1  0  0  0  0
M  END
> <PUBCHEM_COMPOUND_CID>
12790

> <PUBCHEM_COMPOUND_CANONICALIZED>
1

> <PUBCHEM_CACTVS_COMPLEXITY>
154

> <PUBCHEM_CACTVS_HBOND_ACCEPTOR>
5

> <PUBCHEM_CACTVS_HBOND_DONOR>
2

> <PUBCHEM_CACTVS_ROTATABLE_BOND>
0

> <PUBCHEM_CACTVS_SUBSKEYS>
AAADcYBjgQAAAAAAAAAAAAAAAAAAAWAAAAAsAAAAAAAAAFgB+AAAHQAQAAAACAgBFwQF8L7JkACgAQZhZACAgC2REKABUaAoVBCASABASEAUBAgIAAJAACAAAAAAAAAAAAAAAAAAAAAAAAAAAAAAAAAAAA==

> <PUBCHEM_IUPAC_OPENEYE_NAME>
2-fluoro-7H-purin-6-amine

> <PUBCHEM_IUPAC_CAS_NAME>
2-fluoro-7H-purin-6-amine

> <PUBCHEM_IUPAC_NAME>
2-fluoro-7H-purin-6-amine

> <PUBCHEM_IUPAC_SYSTEMATIC_NAME>
2-fluoranyl-7H-purin-6-amine

> <PUBCHEM_IUPAC_TRADITIONAL_NAME>
(2-fluoro-7H-purin-6-yl)amine

> <PUBCHEM_IUPAC_INCHI>
InChI=1S/C5H4FN5/c6-5-10-3(7)2-4(11-5)9-1-8-2/h1H,(H3,7,8,9,10,11)

> <PUBCHEM_IUPAC_INCHIKEY>
WKMPTBDYDNUJLF-UHFFFAOYSA-N

> <PUBCHEM_XLOGP3>
-0.1

> <PUBCHEM_EXACT_MASS>
153.045073

> <PUBCHEM_MOLECULAR_FORMULA>
C5H4FN5

> <PUBCHEM_MOLECULAR_WEIGHT>
153.117163

> <PUBCHEM_OPENEYE_CAN_SMILES>
C1=NC2=C(N1)C(=NC(=N2)F)N

> <PUBCHEM_OPENEYE_ISO_SMILES>
C1=NC2=C(N1)C(=NC(=N2)F)N

> <PUBCHEM_CACTVS_TPSA>
80.5

> <PUBCHEM_MONOISOTOPIC_WEIGHT>
153.045073

> <PUBCHEM_TOTAL_CHARGE>
0

> <PUBCHEM_HEAVY_ATOM_COUNT>
11

> <PUBCHEM_ATOM_DEF_STEREO_COUNT>
0

> <PUBCHEM_ATOM_UDEF_STEREO_COUNT>
0

> <PUBCHEM_BOND_DEF_STEREO_COUNT>
0

> <PUBCHEM_BOND_UDEF_STEREO_COUNT>
0

> <PUBCHEM_ISOTOPIC_ATOM_COUNT>
0

> <PUBCHEM_COMPONENT_COUNT>
1

> <PUBCHEM_CACTVS_TAUTO_COUNT>
8

> <PUBCHEM_COORDINATE_TYPE>
1
5
255

> <PUBCHEM_BONDANNOTATIONS>
2  10  8
2  7  8
3  10  8
3  8  8
4  11  8
4  8  8
5  11  8
5  9  8
7  8  8
7  9  8

$$$$

