12708
  -OEChem-06261207163D

 15 14  0     0  0  0  0  0  0999 V2000
    2.9613   -0.4318   -0.0003 Cl  0  0  0  0  0  0  0  0  0  0  0  0
   -0.9007    0.3000    0.0003 O   0  0  0  0  0  0  0  0  0  0  0  0
    0.2697   -1.6802    0.0001 O   0  0  0  0  0  0  0  0  0  0  0  0
   -2.1352   -0.4251   -0.0001 C   0  0  0  0  0  0  0  0  0  0  0  0
   -3.2853    0.5592   -0.0002 C   0  0  0  0  0  0  0  0  0  0  0  0
    0.2293   -0.4571    0.0004 C   0  0  0  0  0  0  0  0  0  0  0  0
    1.4438    0.3985   -0.0002 C   0  0  0  0  0  0  0  0  0  0  0  0
    1.4171    1.7366    0.0001 C   0  0  0  0  0  0  0  0  0  0  0  0
   -2.1876   -1.0560   -0.8945 H   0  0  0  0  0  0  0  0  0  0  0  0
   -2.1881   -1.0562    0.8940 H   0  0  0  0  0  0  0  0  0  0  0  0
   -4.2465    0.0377   -0.0005 H   0  0  0  0  0  0  0  0  0  0  0  0
   -3.2360    1.2095    0.8794 H   0  0  0  0  0  0  0  0  0  0  0  0
   -3.2355    1.2098   -0.8796 H   0  0  0  0  0  0  0  0  0  0  0  0
    2.3354    2.3164   -0.0001 H   0  0  0  0  0  0  0  0  0  0  0  0
    0.4929    2.3040    0.0005 H   0  0  0  0  0  0  0  0  0  0  0  0
  1  7  1  0  0  0  0
  2  4  1  0  0  0  0
  2  6  1  0  0  0  0
  3  6  2  0  0  0  0
  4  5  1  0  0  0  0
  4  9  1  0  0  0  0
  4 10  1  0  0  0  0
  5 11  1  0  0  0  0
  5 12  1  0  0  0  0
  5 13  1  0  0  0  0
  6  7  1  0  0  0  0
  7  8  2  0  0  0  0
  8 14  1  0  0  0  0
  8 15  1  0  0  0  0
M  END
> <PUBCHEM_COMPOUND_CID>
12708

> <PUBCHEM_CONFORMER_RMSD>
0.6

> <PUBCHEM_CONFORMER_DIVERSEORDER>
1
10
9
2
4
13
3
15
16
14
5
12
6
11
8
7

> <PUBCHEM_MMFF94_PARTIAL_CHARGES>
9
1 -0.14
14 0.15
15 0.15
2 -0.43
3 -0.57
4 0.28
6 0.71
7 0.15
8 -0.3

> <PUBCHEM_EFFECTIVE_ROTOR_COUNT>
3

> <PUBCHEM_PHARMACOPHORE_FEATURES>
1
1 3 acceptor

> <PUBCHEM_HEAVY_ATOM_COUNT>
8

> <PUBCHEM_ATOM_DEF_STEREO_COUNT>
0

> <PUBCHEM_ATOM_UDEF_STEREO_COUNT>
0

> <PUBCHEM_BOND_DEF_STEREO_COUNT>
0

> <PUBCHEM_BOND_UDEF_STEREO_COUNT>
0

> <PUBCHEM_ISOTOPIC_ATOM_COUNT>
0

> <PUBCHEM_COMPONENT_COUNT>
1

> <PUBCHEM_CACTVS_TAUTO_COUNT>
1

> <PUBCHEM_CONFORMER_ID>
000031A400000001

> <PUBCHEM_MMFF94_ENERGY>
10.191

> <PUBCHEM_FEATURE_SELFOVERLAP>
5.074

> <PUBCHEM_SHAPE_FINGERPRINT>
11062470 55 4751154112044933226
12932764 1 17275116011133831875
14325111 11 18338516344011392193
14390081 3 18408605838369570689
20096714 4 18338798892703553104
21040471 1 18194682570782743812
23552423 10 18126850391519876534
29004967 10 18340764935389574954
5084963 1 18259985946416455801

> <PUBCHEM_SHAPE_MULTIPOLES>
154.77
4.54
1.42
0.6
2.16
0.17
0
0.42
0
-0.53
0
-0.02
0.01
0

> <PUBCHEM_SHAPE_SELFOVERLAP>
280.158

> <PUBCHEM_SHAPE_VOLUME>
99.9

> <PUBCHEM_COORDINATE_TYPE>
2
5
10

$$$$

