854357
  -OEChem-06241222482D

 23 25  0     0  0  0  0  0  0999 V2000
    8.0321    0.2078    0.0000 O   0  0  0  0  0  0  0  0  0  0  0  0
    5.0274   -0.4185    0.0000 N   0  0  0  0  0  0  0  0  0  0  0  0
    4.5274    1.1203    0.0000 N   0  0  0  0  0  0  0  0  0  0  0  0
    5.7123   -1.2033    0.0000 N   0  0  0  0  0  0  0  0  0  0  0  0
    6.3518    0.7648    0.0000 N   0  0  0  0  0  0  0  0  0  0  0  0
    4.0274   -0.4185    0.0000 C   0  0  0  0  0  0  0  0  0  0  0  0
    3.7183    0.5325    0.0000 C   0  0  0  0  0  0  0  0  0  0  0  0
    5.3364    0.5325    0.0000 C   0  0  0  0  0  0  0  0  0  0  0  0
    3.3424   -1.2033    0.0000 C   0  0  0  0  0  0  0  0  0  0  0  0
    2.7029    0.7648    0.0000 C   0  0  0  0  0  0  0  0  0  0  0  0
    6.7328   -0.9946    0.0000 C   0  0  0  0  0  0  0  0  0  0  0  0
    2.3219   -0.9946    0.0000 C   0  0  0  0  0  0  0  0  0  0  0  0
    2.0000   -0.0039    0.0000 C   0  0  0  0  0  0  0  0  0  0  0  0
    7.0547   -0.0039    0.0000 C   0  0  0  0  0  0  0  0  0  0  0  0
    7.3991   -1.7403    0.0000 C   0  0  0  0  0  0  0  0  0  0  0  0
    4.5274    1.7403    0.0000 H   0  0  0  0  0  0  0  0  0  0  0  0
    3.5408   -1.7907    0.0000 H   0  0  0  0  0  0  0  0  0  0  0  0
    2.5182    1.3566    0.0000 H   0  0  0  0  0  0  0  0  0  0  0  0
    1.9088   -1.4569    0.0000 H   0  0  0  0  0  0  0  0  0  0  0  0
    1.3940    0.1273    0.0000 H   0  0  0  0  0  0  0  0  0  0  0  0
    6.9368   -2.1534    0.0000 H   0  0  0  0  0  0  0  0  0  0  0  0
    7.8122   -2.2026    0.0000 H   0  0  0  0  0  0  0  0  0  0  0  0
    7.8614   -1.3272    0.0000 H   0  0  0  0  0  0  0  0  0  0  0  0
  1 14  2  0  0  0  0
  2  4  1  0  0  0  0
  2  6  1  0  0  0  0
  2  8  1  0  0  0  0
  3  7  1  0  0  0  0
  3  8  1  0  0  0  0
  3 16  1  0  0  0  0
  4 11  2  0  0  0  0
  5  8  2  0  0  0  0
  5 14  1  0  0  0  0
  6  7  1  0  0  0  0
  6  9  2  0  0  0  0
  7 10  2  0  0  0  0
  9 12  1  0  0  0  0
  9 17  1  0  0  0  0
 10 13  1  0  0  0  0
 10 18  1  0  0  0  0
 11 14  1  0  0  0  0
 11 15  1  0  0  0  0
 12 13  2  0  0  0  0
 12 19  1  0  0  0  0
 13 20  1  0  0  0  0
 15 21  1  0  0  0  0
 15 22  1  0  0  0  0
 15 23  1  0  0  0  0
M  END
> <PUBCHEM_COMPOUND_CID>
854357

> <PUBCHEM_COMPOUND_CANONICALIZED>
1

> <PUBCHEM_CACTVS_COMPLEXITY>
374

> <PUBCHEM_CACTVS_HBOND_ACCEPTOR>
2

> <PUBCHEM_CACTVS_HBOND_DONOR>
1

> <PUBCHEM_CACTVS_ROTATABLE_BOND>
0

> <PUBCHEM_CACTVS_SUBSKEYS>
AAADccBzoAAAAAAAAAAAAAAAAAAAAWAAAAAwQAAAAAAAAFgBAAAAHgAYAAAACAiBkAAzwILAAACoASVydACSBAEhAgAdiAEQdIiIYCLAmZGUIAh4mAJIyCcQAAAAAAAAAAAAACAAAAAAAAAAQAAAAAAAAA==

> <PUBCHEM_IUPAC_OPENEYE_NAME>
2-methyl-5H-[1,2,4]triazino[2,3-a]benzimidazol-3-one

> <PUBCHEM_IUPAC_CAS_NAME>
2-methyl-5H-[1,2,4]triazino[2,3-a]benzimidazol-3-one

> <PUBCHEM_IUPAC_NAME>
2-methyl-5H-[1,2,4]triazino[2,3-a]benzimidazol-3-one

> <PUBCHEM_IUPAC_SYSTEMATIC_NAME>
2-methyl-5H-[1,2,4]triazino[2,3-a]benzimidazol-3-one

> <PUBCHEM_IUPAC_TRADITIONAL_NAME>
2-methyl-5H-[1,2,4]triazino[2,3-a]benzimidazol-3-one

> <PUBCHEM_IUPAC_INCHI>
InChI=1S/C10H8N4O/c1-6-9(15)12-10-11-7-4-2-3-5-8(7)14(10)13-6/h2-5H,1H3,(H,11,12,15)

> <PUBCHEM_IUPAC_INCHIKEY>
HPXZDEGUGOILQZ-UHFFFAOYSA-N

> <PUBCHEM_XLOGP3_AA>
0.5

> <PUBCHEM_EXACT_MASS>
200.069811

> <PUBCHEM_MOLECULAR_FORMULA>
C10H8N4O

> <PUBCHEM_MOLECULAR_WEIGHT>
200.19672

> <PUBCHEM_OPENEYE_CAN_SMILES>
CC1=NN2C3=CC=CC=C3NC2=NC1=O

> <PUBCHEM_OPENEYE_ISO_SMILES>
CC1=NN2C3=CC=CC=C3NC2=NC1=O

> <PUBCHEM_CACTVS_TPSA>
57.1

> <PUBCHEM_MONOISOTOPIC_WEIGHT>
200.069811

> <PUBCHEM_TOTAL_CHARGE>
0

> <PUBCHEM_HEAVY_ATOM_COUNT>
15

> <PUBCHEM_ATOM_DEF_STEREO_COUNT>
0

> <PUBCHEM_ATOM_UDEF_STEREO_COUNT>
0

> <PUBCHEM_BOND_DEF_STEREO_COUNT>
0

> <PUBCHEM_BOND_UDEF_STEREO_COUNT>
0

> <PUBCHEM_ISOTOPIC_ATOM_COUNT>
0

> <PUBCHEM_COMPONENT_COUNT>
1

> <PUBCHEM_CACTVS_TAUTO_COUNT>
6

> <PUBCHEM_COORDINATE_TYPE>
1
5
255

> <PUBCHEM_BONDANNOTATIONS>
10  13  8
11  14  8
12  13  8
2  4  8
2  6  8
2  8  8
3  7  8
3  8  8
4  11  8
5  14  8
5  8  8
6  7  8
6  9  8
7  10  8
9  12  8

$$$$

