17396115
  -OEChem-06241222543D

 48 51  0     0  0  0  0  0  0999 V2000
    2.5420    0.6894   -1.1966 O   0  0  0  0  0  0  0  0  0  0  0  0
    0.6242   -3.9238   -0.1748 O   0  0  0  0  0  0  0  0  0  0  0  0
   -2.0376   -1.0644    2.6564 O   0  0  0  0  0  0  0  0  0  0  0  0
   -2.7949   -0.8480   -1.2741 N   0  0  0  0  0  0  0  0  0  0  0  0
   -1.9817   -2.0756    0.6002 N   0  0  0  0  0  0  0  0  0  0  0  0
    1.2327   -1.7942   -0.9569 N   0  0  0  0  0  0  0  0  0  0  0  0
   -1.9309   -3.1264   -1.5637 C   0  0  0  0  0  0  0  0  0  0  0  0
   -0.5126   -2.9901   -2.0813 C   0  0  0  0  0  0  0  0  0  0  0  0
   -2.2453   -1.9534   -0.6684 C   0  0  0  0  0  0  0  0  0  0  0  0
   -3.1111    0.2665   -0.4948 C   0  0  0  0  0  0  0  0  0  0  0  0
   -2.8577    0.2224    0.8830 C   0  0  0  0  0  0  0  0  0  0  0  0
    0.5072   -2.9822   -0.9520 C   0  0  0  0  0  0  0  0  0  0  0  0
   -2.2610   -1.0199    1.4507 C   0  0  0  0  0  0  0  0  0  0  0  0
   -3.6696    1.4199   -1.0516 C   0  0  0  0  0  0  0  0  0  0  0  0
    2.2661   -1.4110   -0.0692 C   0  0  0  0  0  0  0  0  0  0  0  0
   -3.1590    1.3166    1.6984 C   0  0  0  0  0  0  0  0  0  0  0  0
    2.9007   -0.1763   -0.2067 C   0  0  0  0  0  0  0  0  0  0  0  0
   -3.9716    2.5143   -0.2395 C   0  0  0  0  0  0  0  0  0  0  0  0
   -3.7170    2.4623    1.1314 C   0  0  0  0  0  0  0  0  0  0  0  0
    2.6487   -2.2818    0.9511 C   0  0  0  0  0  0  0  0  0  0  0  0
    3.9176    0.1873    0.6762 C   0  0  0  0  0  0  0  0  0  0  0  0
    3.6657   -1.9182    1.8338 C   0  0  0  0  0  0  0  0  0  0  0  0
    4.3001   -0.6837    1.6964 C   0  0  0  0  0  0  0  0  0  0  0  0
    2.0768    1.9372   -0.8202 C   0  0  0  0  0  0  0  0  0  0  0  0
    1.1478    2.0527    0.2140 C   0  0  0  0  0  0  0  0  0  0  0  0
    2.5365    3.0797   -1.4755 C   0  0  0  0  0  0  0  0  0  0  0  0
    0.6785    3.3104    0.5927 C   0  0  0  0  0  0  0  0  0  0  0  0
    2.0671    4.3374   -1.0966 C   0  0  0  0  0  0  0  0  0  0  0  0
    1.1381    4.4527   -0.0625 C   0  0  0  0  0  0  0  0  0  0  0  0
   -2.6396   -3.1575   -2.3982 H   0  0  0  0  0  0  0  0  0  0  0  0
   -2.0497   -4.0533   -0.9905 H   0  0  0  0  0  0  0  0  0  0  0  0
   -0.4269   -2.0917   -2.7033 H   0  0  0  0  0  0  0  0  0  0  0  0
   -0.2708   -3.8418   -2.7281 H   0  0  0  0  0  0  0  0  0  0  0  0
   -2.9763   -0.8119   -2.2701 H   0  0  0  0  0  0  0  0  0  0  0  0
   -3.8730    1.4753   -2.1179 H   0  0  0  0  0  0  0  0  0  0  0  0
    1.0143   -1.1005   -1.6684 H   0  0  0  0  0  0  0  0  0  0  0  0
   -2.9674    1.2965    2.7673 H   0  0  0  0  0  0  0  0  0  0  0  0
   -4.4054    3.4094   -0.6762 H   0  0  0  0  0  0  0  0  0  0  0  0
   -3.9532    3.3172    1.7586 H   0  0  0  0  0  0  0  0  0  0  0  0
    2.2093   -3.2531    1.1262 H   0  0  0  0  0  0  0  0  0  0  0  0
    4.4304    1.1404    0.5775 H   0  0  0  0  0  0  0  0  0  0  0  0
    3.9649   -2.5956    2.6284 H   0  0  0  0  0  0  0  0  0  0  0  0
    5.0936   -0.4017    2.3822 H   0  0  0  0  0  0  0  0  0  0  0  0
    0.7577    1.1789    0.7286 H   0  0  0  0  0  0  0  0  0  0  0  0
    3.2602    2.9955   -2.2815 H   0  0  0  0  0  0  0  0  0  0  0  0
   -0.0491    3.3998    1.3942 H   0  0  0  0  0  0  0  0  0  0  0  0
    2.4247    5.2268   -1.6070 H   0  0  0  0  0  0  0  0  0  0  0  0
    0.7715    5.4319    0.2316 H   0  0  0  0  0  0  0  0  0  0  0  0
  1 17  1  0  0  0  0
  1 24  1  0  0  0  0
  2 12  2  0  0  0  0
  3 13  2  0  0  0  0
  4  9  1  0  0  0  0
  4 10  1  0  0  0  0
  4 34  1  0  0  0  0
  5  9  2  0  0  0  0
  5 13  1  0  0  0  0
  6 12  1  0  0  0  0
  6 15  1  0  0  0  0
  6 36  1  0  0  0  0
  7  8  1  0  0  0  0
  7  9  1  0  0  0  0
  7 30  1  0  0  0  0
  7 31  1  0  0  0  0
  8 12  1  0  0  0  0
  8 32  1  0  0  0  0
  8 33  1  0  0  0  0
 10 11  1  0  0  0  0
 10 14  2  0  0  0  0
 11 13  1  0  0  0  0
 11 16  2  0  0  0  0
 14 18  1  0  0  0  0
 14 35  1  0  0  0  0
 15 17  1  0  0  0  0
 15 20  2  0  0  0  0
 16 19  1  0  0  0  0
 16 37  1  0  0  0  0
 17 21  2  0  0  0  0
 18 19  2  0  0  0  0
 18 38  1  0  0  0  0
 19 39  1  0  0  0  0
 20 22  1  0  0  0  0
 20 40  1  0  0  0  0
 21 23  1  0  0  0  0
 21 41  1  0  0  0  0
 22 23  2  0  0  0  0
 22 42  1  0  0  0  0
 23 43  1  0  0  0  0
 24 25  2  0  0  0  0
 24 26  1  0  0  0  0
 25 27  1  0  0  0  0
 25 44  1  0  0  0  0
 26 28  2  0  0  0  0
 26 45  1  0  0  0  0
 27 29  2  0  0  0  0
 27 46  1  0  0  0  0
 28 29  1  0  0  0  0
 28 47  1  0  0  0  0
 29 48  1  0  0  0  0
M  END
> <PUBCHEM_COMPOUND_CID>
17396115

> <PUBCHEM_CONFORMER_RMSD>
1

> <PUBCHEM_CONFORMER_DIVERSEORDER>
1
156
185
209
20
40
184
37
5
50
158
173
149
59
84
105
223
155
39
183
7
95
190
4
215
139
25
137
102
188
242
108
49
204
73
197
125
214
165
135
220
160
235
85
186
132
191
175
61
9
23
112
78
15
62
46
212
38
91
213
170
87
168
30
10
89
69
82
113
45
162
176
169
104
80
127
222
109
117
75
124
17
151
44
88
8
187
121
167
93
177
241
83
92
147
196
239
2
180
240
150
35
238
129
56
134
52
36
106
114
174
24
43
6
126
16
67
143
71
152
79
14
154
28
3
157
192
53
54
179
103
231
70
138
208
142
65
90
236
181
203
12
63
136
60
72
120
74
48
22
206
107
228
198
98
153
64
66
202
100
144
217
194
207
131
18
81
118
200
94
41
128
86
227
27
225
42
21
34
234
57
55
76
51
224
199
58
123
229
193
221
47
230
33
201
218
26
96
141
171
68
119
195
13
133
110
233
29
130
146
101
210
97
11
77
163
226
166
19
159
111
148
116
161
216
211
140
232
31
182
172
145
178
237
164
115
99
205
32
189
122
219

> <PUBCHEM_MMFF94_PARTIAL_CHARGES>
44
1 -0.17
10 0.1
11 0.09
12 0.57
13 0.69
14 -0.15
15 0.12
16 -0.15
17 0.08
18 -0.15
19 -0.15
2 -0.57
20 -0.15
21 -0.15
22 -0.15
23 -0.15
24 0.08
25 -0.15
26 -0.15
27 -0.15
28 -0.15
29 -0.15
3 -0.57
34 0.4
35 0.15
36 0.37
37 0.15
38 0.15
39 0.15
4 -0.55
40 0.15
41 0.15
42 0.15
43 0.15
44 0.15
45 0.15
46 0.15
47 0.15
48 0.15
5 -0.66
6 -0.55
7 0.06
8 0.06
9 0.44

> <PUBCHEM_EFFECTIVE_ROTOR_COUNT>
7

> <PUBCHEM_PHARMACOPHORE_FEATURES>
10
1 1 acceptor
1 2 acceptor
1 3 acceptor
1 4 donor
1 5 donor
1 6 donor
6 10 11 14 16 18 19 rings
6 15 17 20 21 22 23 rings
6 24 25 26 27 28 29 rings
6 4 5 9 10 11 13 rings

> <PUBCHEM_HEAVY_ATOM_COUNT>
29

> <PUBCHEM_ATOM_DEF_STEREO_COUNT>
0

> <PUBCHEM_ATOM_UDEF_STEREO_COUNT>
0

> <PUBCHEM_BOND_DEF_STEREO_COUNT>
0

> <PUBCHEM_BOND_UDEF_STEREO_COUNT>
0

> <PUBCHEM_ISOTOPIC_ATOM_COUNT>
0

> <PUBCHEM_COMPONENT_COUNT>
1

> <PUBCHEM_CACTVS_TAUTO_COUNT>
12

> <PUBCHEM_CONFORMER_ID>
0109719300000001

> <PUBCHEM_MMFF94_ENERGY>
96.7926

> <PUBCHEM_FEATURE_SELFOVERLAP>
50.804

> <PUBCHEM_SHAPE_FINGERPRINT>
10006869 2 17906444425189025595
11007060 377 17690836762567714444
12107698 1 18271814471376352683
12403259 327 17703213135488672867
12422481 6 17616546489091702466
12553582 1 18267854167763504740
12633257 1 17988359385539624619
12788726 201 17899415290507405639
12978246 48 18335702724073918081
13004483 165 17984158216588504608
13122387 1 18265328585185527205
13583140 156 17988924466092581315
13965767 371 18044669834506831882
14117953 113 18120098543969464716
14725015 67 17259619769340847779
15003188 8 18191601936696293208
15840311 113 16810664931495143177
17093844 170 17834679670563287512
17921350 177 18341314669776229316
17974551 9 17560788940245178497
19311894 1 18117533181747373900
19930381 70 18192147316640269677
20764821 26 17474938204728566093
2132832 1 17903109687957320358
22113638 7 18337399334650163069
22749437 52 18187369852127425535
238918 7 17614860933671852846
5895379 119 18043244648757307532

> <PUBCHEM_SHAPE_MULTIPOLES>
564.26
7.5
5.9
1.95
0.92
3.14
-0.46
1.58
-2.46
-1.69
2.31
0.23
-0.77
-2.17

> <PUBCHEM_SHAPE_SELFOVERLAP>
1239.245

> <PUBCHEM_SHAPE_VOLUME>
301.4

> <PUBCHEM_COORDINATE_TYPE>
2
5
10

$$$$

