7853
  -OEChem-06261202233D

 11 10  0     0  0  0  0  0  0999 V2000
   -1.7404   -0.3827   -0.0710 N   0  0  0  0  0  0  0  0  0  0  0  0
   -0.6366    0.5713   -0.1043 C   0  0  0  0  0  0  0  0  0  0  0  0
    0.6246   -0.0250    0.4408 C   0  0  0  0  0  0  0  0  0  0  0  0
    1.7524   -0.1636   -0.2655 C   0  0  0  0  0  0  0  0  0  0  0  0
   -0.9017    1.4404    0.5078 H   0  0  0  0  0  0  0  0  0  0  0  0
   -0.4997    0.9294   -1.1309 H   0  0  0  0  0  0  0  0  0  0  0  0
    0.6170   -0.3558    1.4765 H   0  0  0  0  0  0  0  0  0  0  0  0
   -1.5667   -1.1269   -0.7461 H   0  0  0  0  0  0  0  0  0  0  0  0
   -2.5935    0.0809   -0.3820 H   0  0  0  0  0  0  0  0  0  0  0  0
    2.6348   -0.6007    0.1890 H   0  0  0  0  0  0  0  0  0  0  0  0
    1.8162    0.1527   -1.3007 H   0  0  0  0  0  0  0  0  0  0  0  0
  1  2  1  0  0  0  0
  1  8  1  0  0  0  0
  1  9  1  0  0  0  0
  2  3  1  0  0  0  0
  2  5  1  0  0  0  0
  2  6  1  0  0  0  0
  3  4  2  0  0  0  0
  3  7  1  0  0  0  0
  4 10  1  0  0  0  0
  4 11  1  0  0  0  0
M  END
> <PUBCHEM_COMPOUND_CID>
7853

> <PUBCHEM_CONFORMER_RMSD>
0.4

> <PUBCHEM_CONFORMER_DIVERSEORDER>
1
3
2

> <PUBCHEM_MMFF94_PARTIAL_CHARGES>
9
1 -0.99
10 0.15
11 0.15
2 0.41
3 -0.29
4 -0.3
7 0.15
8 0.36
9 0.36

> <PUBCHEM_EFFECTIVE_ROTOR_COUNT>
1

> <PUBCHEM_PHARMACOPHORE_FEATURES>
3
1 1 cation
1 1 donor
1 4 hydrophobe

> <PUBCHEM_HEAVY_ATOM_COUNT>
4

> <PUBCHEM_ATOM_DEF_STEREO_COUNT>
0

> <PUBCHEM_ATOM_UDEF_STEREO_COUNT>
0

> <PUBCHEM_BOND_DEF_STEREO_COUNT>
0

> <PUBCHEM_BOND_UDEF_STEREO_COUNT>
0

> <PUBCHEM_ISOTOPIC_ATOM_COUNT>
0

> <PUBCHEM_COMPONENT_COUNT>
1

> <PUBCHEM_CACTVS_TAUTO_COUNT>
1

> <PUBCHEM_CONFORMER_ID>
00001EAD00000001

> <PUBCHEM_MMFF94_ENERGY>
-0.442

> <PUBCHEM_FEATURE_SELFOVERLAP>
15.223

> <PUBCHEM_SHAPE_FINGERPRINT>
139733 1 10879994665879418665
20096714 4 10591755489429531198
21015797 1 6121629424114498608
5460574 1 9511464424344687426

> <PUBCHEM_SHAPE_MULTIPOLES>
77.34
2.22
0.72
0.67
0.03
0.05
-0.02
-0.32
0.25
0.09
0.01
-0.09
0
0

> <PUBCHEM_SHAPE_SELFOVERLAP>
127.51

> <PUBCHEM_SHAPE_VOLUME>
53.6

> <PUBCHEM_COORDINATE_TYPE>
2
5
10

$$$$

