13240
  -OEChem-06261207592D

 28 27  0     0  0  0  0  0  0999 V2000
    6.5380    3.2150    0.0000 Cl  0  0  0  0  0  0  0  0  0  0  0  0
    2.2690    4.1200    0.0000 O   0  0  0  0  0  0  0  0  0  0  0  0
    2.2690    5.1200    0.0000 N   0  0  0  0  0  0  0  0  0  0  0  0
    3.1350    6.6200    0.0000 N   0  0  0  0  0  0  0  0  0  0  0  0
    4.0010    5.1200    0.0000 N   0  0  0  0  0  0  0  0  0  0  0  0
    1.4030    2.6200    0.0000 C   0  0  0  0  0  0  0  0  0  0  0  0
    1.4030    3.6200    0.0000 C   0  0  0  0  0  0  0  0  0  0  0  0
    0.5369    2.1200    0.0000 C   0  0  0  0  0  0  0  0  0  0  0  0
    2.2690    2.1200    0.0000 C   0  0  0  0  0  0  0  0  0  0  0  0
    0.5369    1.1200    0.0000 C   0  0  0  0  0  0  0  0  0  0  0  0
    2.2690    1.1200    0.0000 C   0  0  0  0  0  0  0  0  0  0  0  0
    1.4030    0.6200    0.0000 C   0  0  0  0  0  0  0  0  0  0  0  0
    1.4030    5.6200    0.0000 C   0  0  0  0  0  0  0  0  0  0  0  0
    3.1350    5.6200    0.0000 C   0  0  0  0  0  0  0  0  0  0  0  0
    1.1909    4.2026    0.0000 H   0  0  0  0  0  0  0  0  0  0  0  0
    0.7924    3.5123    0.0000 H   0  0  0  0  0  0  0  0  0  0  0  0
    0.0000    2.4300    0.0000 H   0  0  0  0  0  0  0  0  0  0  0  0
    2.8059    2.4300    0.0000 H   0  0  0  0  0  0  0  0  0  0  0  0
    0.0000    0.8100    0.0000 H   0  0  0  0  0  0  0  0  0  0  0  0
    2.8059    0.8100    0.0000 H   0  0  0  0  0  0  0  0  0  0  0  0
    1.4030    0.0000    0.0000 H   0  0  0  0  0  0  0  0  0  0  0  0
    1.7130    6.1569    0.0000 H   0  0  0  0  0  0  0  0  0  0  0  0
    0.8660    5.9300    0.0000 H   0  0  0  0  0  0  0  0  0  0  0  0
    1.0930    5.0831    0.0000 H   0  0  0  0  0  0  0  0  0  0  0  0
    3.6720    6.9300    0.0000 H   0  0  0  0  0  0  0  0  0  0  0  0
    2.5981    6.9300    0.0000 H   0  0  0  0  0  0  0  0  0  0  0  0
    4.5380    5.4300    0.0000 H   0  0  0  0  0  0  0  0  0  0  0  0
    7.5380    3.2150    0.0000 H   0  0  0  0  0  0  0  0  0  0  0  0
  1 28  1  0  0  0  0
  2  3  1  0  0  0  0
  2  7  1  0  0  0  0
  3 13  1  0  0  0  0
  3 14  1  0  0  0  0
  4 14  1  0  0  0  0
  4 25  1  0  0  0  0
  4 26  1  0  0  0  0
  5 14  2  0  0  0  0
  5 27  1  0  0  0  0
  6  7  1  0  0  0  0
  6  8  2  0  0  0  0
  6  9  1  0  0  0  0
  7 15  1  0  0  0  0
  7 16  1  0  0  0  0
  8 10  1  0  0  0  0
  8 17  1  0  0  0  0
  9 11  2  0  0  0  0
  9 18  1  0  0  0  0
 10 12  2  0  0  0  0
 10 19  1  0  0  0  0
 11 12  1  0  0  0  0
 11 20  1  0  0  0  0
 12 21  1  0  0  0  0
 13 22  1  0  0  0  0
 13 23  1  0  0  0  0
 13 24  1  0  0  0  0
M  END
> <PUBCHEM_COMPOUND_CID>
13240

> <PUBCHEM_COMPOUND_CANONICALIZED>
1

> <PUBCHEM_CACTVS_COMPLEXITY>
166

> <PUBCHEM_CACTVS_HBOND_ACCEPTOR>
2

> <PUBCHEM_CACTVS_HBOND_DONOR>
3

> <PUBCHEM_CACTVS_ROTATABLE_BOND>
4

> <PUBCHEM_CACTVS_SUBSKEYS>
AAADccBzIAAEAAAAAAAAAAAAAAAAAAAAAAAwAAAAAAAAAAABAAAAHgAUAAAADACgmAYzAIJQAACgAiBCIAACAACgAAAJiAAICIiIJiKAERCAMAAkwAEIiAeAwCAOAAAAAAAAAAAAAAAAAAAAAAAAAAAAAA==

> <PUBCHEM_IUPAC_OPENEYE_NAME>
1-benzyloxy-1-methyl-guanidine hydrochloride

> <PUBCHEM_IUPAC_CAS_NAME>
1-methyl-1-phenylmethoxyguanidine hydrochloride

> <PUBCHEM_IUPAC_NAME>
1-methyl-1-phenylmethoxyguanidine hydrochloride

> <PUBCHEM_IUPAC_SYSTEMATIC_NAME>
1-methyl-1-phenylmethoxy-guanidine hydrochloride

> <PUBCHEM_IUPAC_TRADITIONAL_NAME>
1-benzoxy-1-methyl-guanidine hydrochloride

> <PUBCHEM_IUPAC_INCHI>
InChI=1S/C9H13N3O.ClH/c1-12(9(10)11)13-7-8-5-3-2-4-6-8;/h2-6H,7H2,1H3,(H3,10,11);1H

> <PUBCHEM_IUPAC_INCHIKEY>
LKXYFMNDPKWSIT-UHFFFAOYSA-N

> <PUBCHEM_EXACT_MASS>
215.08254

> <PUBCHEM_MOLECULAR_FORMULA>
C9H14ClN3O

> <PUBCHEM_MOLECULAR_WEIGHT>
215.67996

> <PUBCHEM_OPENEYE_CAN_SMILES>
CN(C(=N)N)OCC1=CC=CC=C1.Cl

> <PUBCHEM_OPENEYE_ISO_SMILES>
CN(C(=N)N)OCC1=CC=CC=C1.Cl

> <PUBCHEM_CACTVS_TPSA>
62.3

> <PUBCHEM_MONOISOTOPIC_WEIGHT>
215.08254

> <PUBCHEM_TOTAL_CHARGE>
0

> <PUBCHEM_HEAVY_ATOM_COUNT>
14

> <PUBCHEM_ATOM_DEF_STEREO_COUNT>
0

> <PUBCHEM_ATOM_UDEF_STEREO_COUNT>
0

> <PUBCHEM_BOND_DEF_STEREO_COUNT>
0

> <PUBCHEM_BOND_UDEF_STEREO_COUNT>
0

> <PUBCHEM_ISOTOPIC_ATOM_COUNT>
0

> <PUBCHEM_COMPONENT_COUNT>
2

> <PUBCHEM_CACTVS_TAUTO_COUNT>
1

> <PUBCHEM_COORDINATE_TYPE>
1
5
255

> <PUBCHEM_BONDANNOTATIONS>
10  12  8
11  12  8
6  8  8
6  9  8
8  10  8
9  11  8

$$$$

