13441
  -OEChem-06261214173D

 29 30  0     1  0  0  0  0  0999 V2000
   -3.7359   -0.5067    0.3190 S   0  0  0  0  0  0  0  0  0  0  0  0
   -4.3146   -0.2206    1.6152 O   0  0  0  0  0  0  0  0  0  0  0  0
   -4.1633   -1.6300   -0.4888 O   0  0  0  0  0  0  0  0  0  0  0  0
   -0.0700    0.8290   -0.2852 N   0  0  0  0  0  0  0  0  0  0  0  0
    0.7552   -0.2824   -0.3402 N   0  0  0  0  0  0  0  0  0  0  0  0
   -1.4307    0.4059   -0.5756 C   0  0  1  0  0  0  0  0  0  0  0  0
   -1.9558   -0.5609    0.4867 C   0  0  0  0  0  0  0  0  0  0  0  0
   -2.4072    1.5875   -0.5803 C   0  0  0  0  0  0  0  0  0  0  0  0
   -3.8006    0.9736   -0.6813 C   0  0  0  0  0  0  0  0  0  0  0  0
    2.1398   -0.1906   -0.1259 C   0  0  0  0  0  0  0  0  0  0  0  0
    2.9755   -1.2626   -0.4537 C   0  0  0  0  0  0  0  0  0  0  0  0
    2.6922    0.9732    0.4172 C   0  0  0  0  0  0  0  0  0  0  0  0
    4.3509   -1.1715   -0.2400 C   0  0  0  0  0  0  0  0  0  0  0  0
    4.0676    1.0642    0.6308 C   0  0  0  0  0  0  0  0  0  0  0  0
    4.8970   -0.0082    0.3021 C   0  0  0  0  0  0  0  0  0  0  0  0
   -1.4785   -0.0735   -1.5644 H   0  0  0  0  0  0  0  0  0  0  0  0
   -1.6143   -1.5891    0.3433 H   0  0  0  0  0  0  0  0  0  0  0  0
   -1.7159   -0.2271    1.5021 H   0  0  0  0  0  0  0  0  0  0  0  0
   -2.2188    2.2783   -1.4087 H   0  0  0  0  0  0  0  0  0  0  0  0
   -2.3232    2.1567    0.3547 H   0  0  0  0  0  0  0  0  0  0  0  0
   -4.5800    1.6403   -0.3070 H   0  0  0  0  0  0  0  0  0  0  0  0
   -4.0240    0.6739   -1.7093 H   0  0  0  0  0  0  0  0  0  0  0  0
    0.2271    1.4936   -1.0000 H   0  0  0  0  0  0  0  0  0  0  0  0
    0.4297   -1.1104   -0.8287 H   0  0  0  0  0  0  0  0  0  0  0  0
    2.5636   -2.1756   -0.8766 H   0  0  0  0  0  0  0  0  0  0  0  0
    2.0781    1.8263    0.6933 H   0  0  0  0  0  0  0  0  0  0  0  0
    4.9967   -2.0065   -0.4956 H   0  0  0  0  0  0  0  0  0  0  0  0
    4.4932    1.9691    1.0547 H   0  0  0  0  0  0  0  0  0  0  0  0
    5.9678    0.0625    0.4689 H   0  0  0  0  0  0  0  0  0  0  0  0
  1  2  2  0  0  0  0
  1  3  2  0  0  0  0
  1  7  1  0  0  0  0
  1  9  1  0  0  0  0
  4  5  1  0  0  0  0
  4  6  1  0  0  0  0
  4 23  1  0  0  0  0
  5 10  1  0  0  0  0
  5 24  1  0  0  0  0
  6  7  1  0  0  0  0
  6  8  1  0  0  0  0
  6 16  1  0  0  0  0
  7 17  1  0  0  0  0
  7 18  1  0  0  0  0
  8  9  1  0  0  0  0
  8 19  1  0  0  0  0
  8 20  1  0  0  0  0
  9 21  1  0  0  0  0
  9 22  1  0  0  0  0
 10 11  2  0  0  0  0
 10 12  1  0  0  0  0
 11 13  1  0  0  0  0
 11 25  1  0  0  0  0
 12 14  2  0  0  0  0
 12 26  1  0  0  0  0
 13 15  2  0  0  0  0
 13 27  1  0  0  0  0
 14 15  1  0  0  0  0
 14 28  1  0  0  0  0
 15 29  1  0  0  0  0
M  END
> <PUBCHEM_COMPOUND_CID>
13441

> <PUBCHEM_CONFORMER_RMSD>
0.6

> <PUBCHEM_CONFORMER_DIVERSEORDER>
1
22
11
2
15
16
12
20
8
17
14
7
4
3
18
9
13
21
6
10
5
19

> <PUBCHEM_MMFF94_PARTIAL_CHARGES>
21
1 1.09
10 0.1
11 -0.15
12 -0.15
13 -0.15
14 -0.15
15 -0.15
2 -0.65
23 0.36
24 0.4
25 0.15
26 0.15
27 0.15
28 0.15
29 0.15
3 -0.65
4 -0.62
5 -0.51
6 0.27
7 0.11
9 0.11

> <PUBCHEM_EFFECTIVE_ROTOR_COUNT>
3.8

> <PUBCHEM_PHARMACOPHORE_FEATURES>
6
1 2 acceptor
1 3 acceptor
1 4 donor
1 5 donor
5 1 6 7 8 9 rings
6 10 11 12 13 14 15 rings

> <PUBCHEM_HEAVY_ATOM_COUNT>
15

> <PUBCHEM_ATOM_DEF_STEREO_COUNT>
0

> <PUBCHEM_ATOM_UDEF_STEREO_COUNT>
1

> <PUBCHEM_BOND_DEF_STEREO_COUNT>
0

> <PUBCHEM_BOND_UDEF_STEREO_COUNT>
0

> <PUBCHEM_ISOTOPIC_ATOM_COUNT>
0

> <PUBCHEM_COMPONENT_COUNT>
1

> <PUBCHEM_CACTVS_TAUTO_COUNT>
1

> <PUBCHEM_CONFORMER_ID>
0000348100000001

> <PUBCHEM_MMFF94_ENERGY>
32.6327

> <PUBCHEM_FEATURE_SELFOVERLAP>
31.95

> <PUBCHEM_SHAPE_FINGERPRINT>
10680689 15 18343300383739293205
10912923 1 16660370276683149702
11552529 35 17531814524221407751
11615757 297 17603307042090802632
13237642 15 18412266108082918928
13296908 3 18411984680108157836
13675066 3 18342737416278968068
14123238 8 18410293597123252262
14252887 29 18334572473602587950
17834074 16 18411702110062518638
17844677 252 18409726279120103828
18186145 218 18040431114070417070
19141452 34 18408600336811909095
1986462 14 18130788996493883485
200 152 17894921728265844557
20279233 1 18412262856607961958
20432913 95 18408319986314698923
20645477 70 18042132114461922158
21065198 57 18337675312147765116
21065201 7 17774728665983074832
22485316 2 18411984680060723958
22646028 1 15985105223464444584
22854114 59 18334858311944162074
23402539 116 18131641083666666575
23557571 272 17916871342857029229
23559900 14 18270124629499663366
26918003 58 18260270771483468632
3268164 11 17346328115105517839
42 15 18409729573422712766
4214541 1 18410858797333860973
5104073 3 18339083791085821064
542803 24 16081088173469477280
573450 72 16773526550152495944
69090 78 18408325462493290974
77779 3 18409168826745465708
9709674 26 18413385440842743642

> <PUBCHEM_SHAPE_MULTIPOLES>
290.84
11.13
1.44
0.92
1.87
0
-0.2
1.54
-1.38
-0.25
0.18
-0.66
0
0.88

> <PUBCHEM_SHAPE_SELFOVERLAP>
591.033

> <PUBCHEM_SHAPE_VOLUME>
169.6

> <PUBCHEM_COORDINATE_TYPE>
2
5
10

$$$$

