51091006
  -OEChem-06241223012D

 37 39  0     0  0  0  0  0  0999 V2000
    3.0000   -2.2694    0.0000 S   0  0  0  0  0  0  0  0  0  0  0  0
    5.5032    2.6785    0.0000 S   0  0  0  0  0  0  0  0  0  0  0  0
    2.0000   -2.2694    0.0000 O   0  0  0  0  0  0  0  0  0  0  0  0
    4.0000   -2.2694    0.0000 O   0  0  0  0  0  0  0  0  0  0  0  0
    3.0000    1.7306    0.0000 N   0  0  0  0  0  0  0  0  0  0  0  0
    2.1910    2.3184    0.0000 N   0  0  0  0  0  0  0  0  0  0  0  0
    3.5000    3.2694    0.0000 N   0  0  0  0  0  0  0  0  0  0  0  0
    2.5000    3.2694    0.0000 N   0  0  0  0  0  0  0  0  0  0  0  0
    3.0000   -1.2694    0.0000 C   0  0  0  0  0  0  0  0  0  0  0  0
    3.0000    0.7306    0.0000 C   0  0  0  0  0  0  0  0  0  0  0  0
    3.8660   -0.7694    0.0000 C   0  0  0  0  0  0  0  0  0  0  0  0
    2.1340   -0.7694    0.0000 C   0  0  0  0  0  0  0  0  0  0  0  0
    3.8660    0.2306    0.0000 C   0  0  0  0  0  0  0  0  0  0  0  0
    2.1340    0.2306    0.0000 C   0  0  0  0  0  0  0  0  0  0  0  0
    3.8090    2.3184    0.0000 C   0  0  0  0  0  0  0  0  0  0  0  0
    4.7601    2.0094    0.0000 C   0  0  0  0  0  0  0  0  0  0  0  0
    3.0000   -3.2694    0.0000 C   0  0  0  0  0  0  0  0  0  0  0  0
    6.4543    2.3695    0.0000 C   0  0  0  0  0  0  0  0  0  0  0  0
    6.6622    1.3913    0.0000 C   0  0  0  0  0  0  0  0  0  0  0  0
    7.1974    3.0386    0.0000 C   0  0  0  0  0  0  0  0  0  0  0  0
    7.6132    1.0823    0.0000 C   0  0  0  0  0  0  0  0  0  0  0  0
    8.1485    2.7296    0.0000 C   0  0  0  0  0  0  0  0  0  0  0  0
    8.3564    1.7514    0.0000 C   0  0  0  0  0  0  0  0  0  0  0  0
    4.4030   -1.0794    0.0000 H   0  0  0  0  0  0  0  0  0  0  0  0
    1.5970   -1.0794    0.0000 H   0  0  0  0  0  0  0  0  0  0  0  0
    4.4030    0.5406    0.0000 H   0  0  0  0  0  0  0  0  0  0  0  0
    1.5970    0.5406    0.0000 H   0  0  0  0  0  0  0  0  0  0  0  0
    4.4690    1.4619    0.0000 H   0  0  0  0  0  0  0  0  0  0  0  0
    5.2486    1.6276    0.0000 H   0  0  0  0  0  0  0  0  0  0  0  0
    2.3800   -3.2694    0.0000 H   0  0  0  0  0  0  0  0  0  0  0  0
    3.0000   -3.8894    0.0000 H   0  0  0  0  0  0  0  0  0  0  0  0
    3.6200   -3.2694    0.0000 H   0  0  0  0  0  0  0  0  0  0  0  0
    6.2014    0.9765    0.0000 H   0  0  0  0  0  0  0  0  0  0  0  0
    7.0685    3.6450    0.0000 H   0  0  0  0  0  0  0  0  0  0  0  0
    7.7422    0.4758    0.0000 H   0  0  0  0  0  0  0  0  0  0  0  0
    8.6092    3.1444    0.0000 H   0  0  0  0  0  0  0  0  0  0  0  0
    8.9460    1.5598    0.0000 H   0  0  0  0  0  0  0  0  0  0  0  0
  1  3  2  0  0  0  0
  1  4  2  0  0  0  0
  1  9  1  0  0  0  0
  1 17  1  0  0  0  0
  2 16  1  0  0  0  0
  2 18  1  0  0  0  0
  5  6  1  0  0  0  0
  5 10  1  0  0  0  0
  5 15  1  0  0  0  0
  6  8  2  0  0  0  0
  7  8  1  0  0  0  0
  7 15  2  0  0  0  0
  9 11  2  0  0  0  0
  9 12  1  0  0  0  0
 10 13  2  0  0  0  0
 10 14  1  0  0  0  0
 11 13  1  0  0  0  0
 11 24  1  0  0  0  0
 12 14  2  0  0  0  0
 12 25  1  0  0  0  0
 13 26  1  0  0  0  0
 14 27  1  0  0  0  0
 15 16  1  0  0  0  0
 16 28  1  0  0  0  0
 16 29  1  0  0  0  0
 17 30  1  0  0  0  0
 17 31  1  0  0  0  0
 17 32  1  0  0  0  0
 18 19  2  0  0  0  0
 18 20  1  0  0  0  0
 19 21  1  0  0  0  0
 19 33  1  0  0  0  0
 20 22  2  0  0  0  0
 20 34  1  0  0  0  0
 21 23  2  0  0  0  0
 21 35  1  0  0  0  0
 22 23  1  0  0  0  0
 22 36  1  0  0  0  0
 23 37  1  0  0  0  0
M  END
> <PUBCHEM_COMPOUND_CID>
51091006

> <PUBCHEM_COMPOUND_CANONICALIZED>
1

> <PUBCHEM_CACTVS_COMPLEXITY>
468

> <PUBCHEM_CACTVS_HBOND_ACCEPTOR>
6

> <PUBCHEM_CACTVS_HBOND_DONOR>
0

> <PUBCHEM_CACTVS_ROTATABLE_BOND>
5

> <PUBCHEM_CACTVS_SUBSKEYS>
AAADccBzsABgAAAAAAAAAAAAAAAAAWAAAAAwYAAAAAAAAAAB0AAAHAQIAAAACAiFUwCz0YYIAAqiACZiZHDCBCMhCpAdiBgQZIiIICLgmZGEIAhggALoyCcQAAAAAAQAAAAAAAAACAAAAAAAAAAAAAAAAA==

> <PUBCHEM_IUPAC_OPENEYE_NAME>
1-(4-methylsulfonylphenyl)-5-(phenylsulfanylmethyl)tetrazole

> <PUBCHEM_IUPAC_CAS_NAME>
1-(4-methylsulfonylphenyl)-5-[(phenylthio)methyl]tetrazole

> <PUBCHEM_IUPAC_NAME>
1-(4-methylsulfonylphenyl)-5-(phenylsulfanylmethyl)tetrazole

> <PUBCHEM_IUPAC_SYSTEMATIC_NAME>
1-(4-methylsulfonylphenyl)-5-(phenylsulfanylmethyl)-1,2,3,4-tetrazole

> <PUBCHEM_IUPAC_TRADITIONAL_NAME>
1-(4-mesylphenyl)-5-[(phenylthio)methyl]tetrazole

> <PUBCHEM_IUPAC_INCHI>
InChI=1S/C15H14N4O2S2/c1-23(20,21)14-9-7-12(8-10-14)19-15(16-17-18-19)11-22-13-5-3-2-4-6-13/h2-10H,11H2,1H3

> <PUBCHEM_IUPAC_INCHIKEY>
GRKNDLNLWVPAIM-UHFFFAOYSA-N

> <PUBCHEM_XLOGP3_AA>
2.5

> <PUBCHEM_EXACT_MASS>
346.055818

> <PUBCHEM_MOLECULAR_FORMULA>
C15H14N4O2S2

> <PUBCHEM_MOLECULAR_WEIGHT>
346.42726

> <PUBCHEM_OPENEYE_CAN_SMILES>
CS(=O)(=O)C1=CC=C(C=C1)N2C(=NN=N2)CSC3=CC=CC=C3

> <PUBCHEM_OPENEYE_ISO_SMILES>
CS(=O)(=O)C1=CC=C(C=C1)N2C(=NN=N2)CSC3=CC=CC=C3

> <PUBCHEM_CACTVS_TPSA>
111

> <PUBCHEM_MONOISOTOPIC_WEIGHT>
346.055818

> <PUBCHEM_TOTAL_CHARGE>
0

> <PUBCHEM_HEAVY_ATOM_COUNT>
23

> <PUBCHEM_ATOM_DEF_STEREO_COUNT>
0

> <PUBCHEM_ATOM_UDEF_STEREO_COUNT>
0

> <PUBCHEM_BOND_DEF_STEREO_COUNT>
0

> <PUBCHEM_BOND_UDEF_STEREO_COUNT>
0

> <PUBCHEM_ISOTOPIC_ATOM_COUNT>
0

> <PUBCHEM_COMPONENT_COUNT>
1

> <PUBCHEM_CACTVS_TAUTO_COUNT>
1

> <PUBCHEM_COORDINATE_TYPE>
1
5
255

> <PUBCHEM_BONDANNOTATIONS>
10  13  8
10  14  8
11  13  8
12  14  8
18  19  8
18  20  8
19  21  8
20  22  8
21  23  8
22  23  8
5  15  8
5  6  8
6  8  8
7  15  8
7  8  8
9  11  8
9  12  8

$$$$

