8352
  -OEChem-06261202453D

 21 22  0     0  0  0  0  0  0999 V2000
    2.7973    1.4091   -0.0270 O   0  0  0  0  0  0  0  0  0  0  0  0
    2.1560   -1.6321    1.2045 O   0  0  0  0  0  0  0  0  0  0  0  0
    2.2582   -1.7609   -1.0625 O   0  0  0  0  0  0  0  0  0  0  0  0
   -0.7625    2.1452    0.0105 N   0  0  0  0  0  0  0  0  0  0  0  0
   -0.4820   -0.2480   -0.0162 C   0  0  0  0  0  0  0  0  0  0  0  0
   -1.2914    0.9071    0.0022 C   0  0  0  0  0  0  0  0  0  0  0  0
    0.9090   -0.0788   -0.0260 C   0  0  0  0  0  0  0  0  0  0  0  0
   -1.0681   -1.5252   -0.0241 C   0  0  0  0  0  0  0  0  0  0  0  0
    1.4571    1.1957   -0.0177 C   0  0  0  0  0  0  0  0  0  0  0  0
   -2.6733    0.7382    0.0120 C   0  0  0  0  0  0  0  0  0  0  0  0
   -2.4529   -1.6647   -0.0138 C   0  0  0  0  0  0  0  0  0  0  0  0
    0.5850    2.2652    0.0004 C   0  0  0  0  0  0  0  0  0  0  0  0
   -3.2562   -0.5314    0.0041 C   0  0  0  0  0  0  0  0  0  0  0  0
    1.8237   -1.2193   -0.0462 C   0  0  0  0  0  0  0  0  0  0  0  0
   -0.4667   -2.4307   -0.0384 H   0  0  0  0  0  0  0  0  0  0  0  0
   -3.3247    1.6103    0.0261 H   0  0  0  0  0  0  0  0  0  0  0  0
    0.9501    3.2875    0.0076 H   0  0  0  0  0  0  0  0  0  0  0  0
   -2.9025   -2.6530   -0.0200 H   0  0  0  0  0  0  0  0  0  0  0  0
   -4.3377   -0.6309    0.0121 H   0  0  0  0  0  0  0  0  0  0  0  0
    3.2794    0.5667   -0.0375 H   0  0  0  0  0  0  0  0  0  0  0  0
    2.7696   -2.3973    1.1860 H   0  0  0  0  0  0  0  0  0  0  0  0
  1  9  1  0  0  0  0
  1 20  1  0  0  0  0
  2 14  1  0  0  0  0
  2 21  1  0  0  0  0
  3 14  2  0  0  0  0
  4  6  1  0  0  0  0
  4 12  2  0  0  0  0
  5  6  1  0  0  0  0
  5  7  1  0  0  0  0
  5  8  2  0  0  0  0
  6 10  2  0  0  0  0
  7  9  2  0  0  0  0
  7 14  1  0  0  0  0
  8 11  1  0  0  0  0
  8 15  1  0  0  0  0
  9 12  1  0  0  0  0
 10 13  1  0  0  0  0
 10 16  1  0  0  0  0
 11 13  2  0  0  0  0
 11 18  1  0  0  0  0
 12 17  1  0  0  0  0
 13 19  1  0  0  0  0
M  END
> <PUBCHEM_COMPOUND_CID>
8352

> <PUBCHEM_CONFORMER_RMSD>
0.4

> <PUBCHEM_CONFORMER_DIVERSEORDER>
1
2
3

> <PUBCHEM_MMFF94_PARTIAL_CHARGES>
20
1 -0.53
10 -0.15
11 -0.15
12 0.16
13 -0.15
14 0.63
15 0.15
16 0.15
17 0.15
18 0.15
19 0.15
2 -0.65
20 0.45
21 0.5
3 -0.57
4 -0.62
6 0.31
7 0.09
8 -0.15
9 0.08

> <PUBCHEM_EFFECTIVE_ROTOR_COUNT>
1

> <PUBCHEM_PHARMACOPHORE_FEATURES>
7
1 1 donor
1 2 acceptor
1 3 acceptor
1 4 acceptor
3 2 3 14 anion
6 4 5 6 7 9 12 rings
6 5 6 8 10 11 13 rings

> <PUBCHEM_HEAVY_ATOM_COUNT>
14

> <PUBCHEM_ATOM_DEF_STEREO_COUNT>
0

> <PUBCHEM_ATOM_UDEF_STEREO_COUNT>
0

> <PUBCHEM_BOND_DEF_STEREO_COUNT>
0

> <PUBCHEM_BOND_UDEF_STEREO_COUNT>
0

> <PUBCHEM_ISOTOPIC_ATOM_COUNT>
0

> <PUBCHEM_COMPONENT_COUNT>
1

> <PUBCHEM_CACTVS_TAUTO_COUNT>
4

> <PUBCHEM_CONFORMER_ID>
000020A000000001

> <PUBCHEM_MMFF94_ENERGY>
48.3689

> <PUBCHEM_FEATURE_SELFOVERLAP>
35.609

> <PUBCHEM_SHAPE_FINGERPRINT>
10967382 1 18338516326952790367
11578080 2 17058390299758124430
12382932 28 18337116678488699033
12423570 1 12391526260320858465
12524768 44 18408601461502386583
13140716 1 18338797935168543617
13380535 21 18338500955206796213
13380535 76 18267588996250183874
15001771 113 18263070158073585481
161256 15 18410288120887157572
16945 1 18193837046536208365
17990270 104 18408321060162095839
193761 8 18338516442674690996
20201158 50 18268150859893234447
20588541 1 18268145362187519461
20645476 183 17053577406297861252
20645477 70 18337677413004347831
20871998 22 18335698394467523254
21501502 16 18410013230147935625
2334 1 18410856551355881537
23463225 33 18341619153156566472
23552423 10 18271522001103677935
23559900 14 17396700265323469566
241688 4 18339358690166959633
2748010 2 18411140268284525805
528886 8 18193279585255605369
53812653 166 18190744137238326473
7364860 26 18261391100944361200
81228 2 18049160269689700481

> <PUBCHEM_SHAPE_MULTIPOLES>
265.52
4.17
2.43
0.73
1.19
0.37
-0.03
-0.94
0.01
-0.8
0.01
-0.27
-0.26
-0.01

> <PUBCHEM_SHAPE_SELFOVERLAP>
589.529

> <PUBCHEM_SHAPE_VOLUME>
141.6

> <PUBCHEM_COORDINATE_TYPE>
2
5
10

$$$$

