11886
  -OEChem-06261206143D

 26 28  0     0  0  0  0  0  0999 V2000
   -0.0419    1.1790    0.0001 N   0  0  0  0  0  0  0  0  0  0  0  0
    0.9605   -1.0083   -0.0001 C   0  0  0  0  0  0  0  0  0  0  0  0
    1.0526    0.3938    0.0000 C   0  0  0  0  0  0  0  0  0  0  0  0
   -1.4568   -0.7669   -0.0001 C   0  0  0  0  0  0  0  0  0  0  0  0
    2.3218    0.9664    0.0001 C   0  0  0  0  0  0  0  0  0  0  0  0
   -1.2700    0.6257    0.0000 C   0  0  0  0  0  0  0  0  0  0  0  0
   -0.3170   -1.5774   -0.0001 C   0  0  0  0  0  0  0  0  0  0  0  0
    2.1230   -1.7986    0.0000 C   0  0  0  0  0  0  0  0  0  0  0  0
    3.4792    0.1841    0.0001 C   0  0  0  0  0  0  0  0  0  0  0  0
   -2.7527   -1.3119    0.0000 C   0  0  0  0  0  0  0  0  0  0  0  0
    3.3801   -1.2014    0.0001 C   0  0  0  0  0  0  0  0  0  0  0  0
   -2.4009    1.4379    0.0000 C   0  0  0  0  0  0  0  0  0  0  0  0
    2.4793    2.4558   -0.0002 C   0  0  0  0  0  0  0  0  0  0  0  0
   -3.8669   -0.4780    0.0000 C   0  0  0  0  0  0  0  0  0  0  0  0
   -3.6903    0.8998    0.0001 C   0  0  0  0  0  0  0  0  0  0  0  0
   -0.4253   -2.6613   -0.0001 H   0  0  0  0  0  0  0  0  0  0  0  0
    2.0549   -2.8842   -0.0001 H   0  0  0  0  0  0  0  0  0  0  0  0
    4.4644    0.6427    0.0001 H   0  0  0  0  0  0  0  0  0  0  0  0
   -2.9005   -2.3896    0.0000 H   0  0  0  0  0  0  0  0  0  0  0  0
    4.2761   -1.8144    0.0000 H   0  0  0  0  0  0  0  0  0  0  0  0
   -2.2887    2.5206    0.0001 H   0  0  0  0  0  0  0  0  0  0  0  0
    3.5322    2.7578    0.0006 H   0  0  0  0  0  0  0  0  0  0  0  0
    2.0161    2.8875   -0.8938 H   0  0  0  0  0  0  0  0  0  0  0  0
    2.0147    2.8881    0.8923 H   0  0  0  0  0  0  0  0  0  0  0  0
   -4.8665   -0.9015    0.0000 H   0  0  0  0  0  0  0  0  0  0  0  0
   -4.5529    1.5595    0.0001 H   0  0  0  0  0  0  0  0  0  0  0  0
  1  3  2  0  0  0  0
  1  6  1  0  0  0  0
  2  3  1  0  0  0  0
  2  7  2  0  0  0  0
  2  8  1  0  0  0  0
  3  5  1  0  0  0  0
  4  6  1  0  0  0  0
  4  7  1  0  0  0  0
  4 10  2  0  0  0  0
  5  9  2  0  0  0  0
  5 13  1  0  0  0  0
  6 12  2  0  0  0  0
  7 16  1  0  0  0  0
  8 11  2  0  0  0  0
  8 17  1  0  0  0  0
  9 11  1  0  0  0  0
  9 18  1  0  0  0  0
 10 14  1  0  0  0  0
 10 19  1  0  0  0  0
 11 20  1  0  0  0  0
 12 15  1  0  0  0  0
 12 21  1  0  0  0  0
 13 22  1  0  0  0  0
 13 23  1  0  0  0  0
 13 24  1  0  0  0  0
 14 15  2  0  0  0  0
 14 25  1  0  0  0  0
 15 26  1  0  0  0  0
M  END
> <PUBCHEM_COMPOUND_CID>
11886

> <PUBCHEM_CONFORMER_RMSD>
0.4

> <PUBCHEM_CONFORMER_DIVERSEORDER>
1

> <PUBCHEM_MMFF94_PARTIAL_CHARGES>
21
1 -0.62
10 -0.15
11 -0.15
12 -0.15
13 0.14
14 -0.15
15 -0.15
16 0.15
17 0.15
18 0.15
19 0.15
20 0.15
21 0.15
25 0.15
26 0.15
3 0.31
5 -0.14
6 0.31
7 -0.15
8 -0.15
9 -0.15

> <PUBCHEM_EFFECTIVE_ROTOR_COUNT>
0

> <PUBCHEM_PHARMACOPHORE_FEATURES>
4
1 1 acceptor
6 1 2 3 4 6 7 rings
6 2 3 5 8 9 11 rings
6 4 6 10 12 14 15 rings

> <PUBCHEM_HEAVY_ATOM_COUNT>
15

> <PUBCHEM_ATOM_DEF_STEREO_COUNT>
0

> <PUBCHEM_ATOM_UDEF_STEREO_COUNT>
0

> <PUBCHEM_BOND_DEF_STEREO_COUNT>
0

> <PUBCHEM_BOND_UDEF_STEREO_COUNT>
0

> <PUBCHEM_ISOTOPIC_ATOM_COUNT>
0

> <PUBCHEM_COMPONENT_COUNT>
1

> <PUBCHEM_CACTVS_TAUTO_COUNT>
1

> <PUBCHEM_CONFORMER_ID>
00002E6E00000001

> <PUBCHEM_MMFF94_ENERGY>
47.782

> <PUBCHEM_FEATURE_SELFOVERLAP>
20.358

> <PUBCHEM_SHAPE_FINGERPRINT>
10411042 1 15600328213938056291
10608611 8 18412266138015983357
10967382 1 18338797814577019556
10980938 120 18409729547600239386
11132069 177 18409455794747847755
11471102 20 18410859879718165790
12032990 46 18410568517721659695
12251169 10 18410857680631574122
13140716 1 18411136943752855745
13221675 6 18411138056102126575
13380535 76 18411138021784735682
13897977 150 18410858733035841613
14144814 61 18410292540265924451
14325111 11 18410856551197710433
14790565 3 15378787615772841326
15196674 1 18410856572535286439
15219456 202 18411700976006367233
15442244 35 18265614475388247834
15536298 74 18334295362038206984
15775835 57 18410849962580617956
16945 1 18338517567976870758
17802600 8 18412832399246518269
17804303 29 18339636840817773590
18186145 218 18335135427312964893
193761 8 14952091620786434310
19591789 44 15749489395121764971
200 152 18113628884813397439
20559304 39 18410573994210910168
20645477 70 18408608075942128143
21267235 1 18410283722761778383
21501502 16 18410012113266489151
221490 88 18340478989563217530
2255824 54 18131067130534663778
22854114 111 18411699868026254064
2334 1 18410855412894084037
23402539 116 18261122897216115942
23402655 69 18335988657158201461
23463225 33 18411701006050032796
23559900 14 18335425703152386274
2748010 2 18411699867894261975
335352 9 18194402427145558151
474 4 17631446766050716092
5104073 3 18411136943742287291
528886 8 18410298029244821178
53812653 166 18335144180677827928
69090 78 18334863822561549111
7364860 26 18335420145417310320
7832392 63 18265051529598087360
8809292 202 18272364269886848731
9709674 26 18410006624330563559

> <PUBCHEM_SHAPE_MULTIPOLES>
303.71
6.53
2.11
0.61
1.9
0.45
0
0.3
0
-0.97
0
0
-0.01
0

> <PUBCHEM_SHAPE_SELFOVERLAP>
686.653

> <PUBCHEM_SHAPE_VOLUME>
159.3

> <PUBCHEM_COORDINATE_TYPE>
2
5
10

$$$$

