17395630
  -OEChem-06241222513D

 40 42  0     0  0  0  0  0  0999 V2000
    2.9932    2.7861    0.6159 S   0  0  0  0  0  0  0  0  0  0  0  0
   -0.5222   -1.0506   -1.2526 O   0  0  0  0  0  0  0  0  0  0  0  0
    4.2350   -0.3470    0.4822 O   0  0  0  0  0  0  0  0  0  0  0  0
    2.0800   -0.3099   -0.4633 N   0  0  0  0  0  0  0  0  0  0  0  0
    0.3348    3.2261    1.1061 N   0  0  0  0  0  0  0  0  0  0  0  0
    0.7383    2.8723   -1.0123 N   0  0  0  0  0  0  0  0  0  0  0  0
   -0.8795    3.3166    0.5428 N   0  0  0  0  0  0  0  0  0  0  0  0
    1.5666   -1.5707   -0.1508 C   0  0  0  0  0  0  0  0  0  0  0  0
    0.2782   -1.9317   -0.5449 C   0  0  0  0  0  0  0  0  0  0  0  0
   -1.7075   -0.6838   -0.6933 C   0  0  0  0  0  0  0  0  0  0  0  0
    2.3563   -2.4729    0.5622 C   0  0  0  0  0  0  0  0  0  0  0  0
   -0.2205   -3.1947   -0.2261 C   0  0  0  0  0  0  0  0  0  0  0  0
   -4.1371    0.0669    0.4538 C   0  0  0  0  0  0  0  0  0  0  0  0
   -2.8673   -0.6620   -1.4680 C   0  0  0  0  0  0  0  0  0  0  0  0
   -1.7626   -0.3305    0.6550 C   0  0  0  0  0  0  0  0  0  0  0  0
   -4.0820   -0.2867   -0.8945 C   0  0  0  0  0  0  0  0  0  0  0  0
   -2.9773    0.0449    1.2285 C   0  0  0  0  0  0  0  0  0  0  0  0
    1.8575   -3.7359    0.8810 C   0  0  0  0  0  0  0  0  0  0  0  0
    0.5691   -4.0969    0.4870 C   0  0  0  0  0  0  0  0  0  0  0  0
    3.3419    0.2123   -0.1491 C   0  0  0  0  0  0  0  0  0  0  0  0
    3.5318    1.6238   -0.6618 C   0  0  0  0  0  0  0  0  0  0  0  0
   -5.4361    0.4679    1.0663 C   0  0  0  0  0  0  0  0  0  0  0  0
    1.2906    2.9617    0.1752 C   0  0  0  0  0  0  0  0  0  0  0  0
   -0.5811    3.0946   -0.7391 C   0  0  0  0  0  0  0  0  0  0  0  0
    3.3619   -2.2737    0.9028 H   0  0  0  0  0  0  0  0  0  0  0  0
    1.4485    0.2925   -0.9868 H   0  0  0  0  0  0  0  0  0  0  0  0
   -1.2182   -3.4961   -0.5344 H   0  0  0  0  0  0  0  0  0  0  0  0
   -2.8303   -0.9362   -2.5187 H   0  0  0  0  0  0  0  0  0  0  0  0
   -0.8721   -0.3182    1.2775 H   0  0  0  0  0  0  0  0  0  0  0  0
   -4.9784   -0.2719   -1.5089 H   0  0  0  0  0  0  0  0  0  0  0  0
   -3.0062    0.3249    2.2782 H   0  0  0  0  0  0  0  0  0  0  0  0
    2.4716   -4.4397    1.4355 H   0  0  0  0  0  0  0  0  0  0  0  0
    0.1817   -5.0812    0.7332 H   0  0  0  0  0  0  0  0  0  0  0  0
    3.0184    1.7757   -1.6159 H   0  0  0  0  0  0  0  0  0  0  0  0
    4.6006    1.7761   -0.8458 H   0  0  0  0  0  0  0  0  0  0  0  0
   -5.5799    1.5485    0.9682 H   0  0  0  0  0  0  0  0  0  0  0  0
   -6.2756   -0.0434    0.5830 H   0  0  0  0  0  0  0  0  0  0  0  0
   -5.4700    0.2046    2.1290 H   0  0  0  0  0  0  0  0  0  0  0  0
    0.4295    3.3523    2.1067 H   0  0  0  0  0  0  0  0  0  0  0  0
   -1.3494    3.0931   -1.4977 H   0  0  0  0  0  0  0  0  0  0  0  0
  1 21  1  0  0  0  0
  1 23  1  0  0  0  0
  2  9  1  0  0  0  0
  2 10  1  0  0  0  0
  3 20  2  0  0  0  0
  4  8  1  0  0  0  0
  4 20  1  0  0  0  0
  4 26  1  0  0  0  0
  5  7  1  0  0  0  0
  5 23  1  0  0  0  0
  5 39  1  0  0  0  0
  6 23  2  0  0  0  0
  6 24  1  0  0  0  0
  7 24  2  0  0  0  0
  8  9  1  0  0  0  0
  8 11  2  0  0  0  0
  9 12  2  0  0  0  0
 10 14  2  0  0  0  0
 10 15  1  0  0  0  0
 11 18  1  0  0  0  0
 11 25  1  0  0  0  0
 12 19  1  0  0  0  0
 12 27  1  0  0  0  0
 13 16  2  0  0  0  0
 13 17  1  0  0  0  0
 13 22  1  0  0  0  0
 14 16  1  0  0  0  0
 14 28  1  0  0  0  0
 15 17  2  0  0  0  0
 15 29  1  0  0  0  0
 16 30  1  0  0  0  0
 17 31  1  0  0  0  0
 18 19  2  0  0  0  0
 18 32  1  0  0  0  0
 19 33  1  0  0  0  0
 20 21  1  0  0  0  0
 21 34  1  0  0  0  0
 21 35  1  0  0  0  0
 22 36  1  0  0  0  0
 22 37  1  0  0  0  0
 22 38  1  0  0  0  0
 24 40  1  0  0  0  0
M  END
> <PUBCHEM_COMPOUND_CID>
17395630

> <PUBCHEM_CONFORMER_RMSD>
1.2

> <PUBCHEM_CONFORMER_DIVERSEORDER>
1
45
41
40
3
7
49
38
12
44
54
15
20
35
52
26
31
4
16
2
37
24
21
19
28
29
53
55
25
32
5
39
46
17
23
8
14
34
30
18
36
33
27
9
13
43
48
42
6
11
50
47
51
10
22

> <PUBCHEM_MMFF94_PARTIAL_CHARGES>
35
1 -0.29
10 0.08
11 -0.15
12 -0.15
13 -0.14
14 -0.15
15 -0.15
16 -0.15
17 -0.15
18 -0.15
19 -0.15
2 -0.17
20 0.57
21 0.29
22 0.14
23 0.24
24 0.37
25 0.15
26 0.37
27 0.15
28 0.15
29 0.15
3 -0.57
30 0.15
31 0.15
32 0.15
33 0.15
39 0.27
4 -0.55
40 0.15
5 0.3
6 -0.57
7 -0.71
8 0.12
9 0.08

> <PUBCHEM_EFFECTIVE_ROTOR_COUNT>
7

> <PUBCHEM_PHARMACOPHORE_FEATURES>
9
1 2 acceptor
1 3 acceptor
1 4 donor
1 5 donor
3 5 6 23 cation
3 6 7 24 cation
5 5 6 7 23 24 rings
6 10 13 14 15 16 17 rings
6 8 9 11 12 18 19 rings

> <PUBCHEM_HEAVY_ATOM_COUNT>
24

> <PUBCHEM_ATOM_DEF_STEREO_COUNT>
0

> <PUBCHEM_ATOM_UDEF_STEREO_COUNT>
0

> <PUBCHEM_BOND_DEF_STEREO_COUNT>
0

> <PUBCHEM_BOND_UDEF_STEREO_COUNT>
0

> <PUBCHEM_ISOTOPIC_ATOM_COUNT>
0

> <PUBCHEM_COMPONENT_COUNT>
1

> <PUBCHEM_CACTVS_TAUTO_COUNT>
6

> <PUBCHEM_CONFORMER_ID>
01096FAE00000001

> <PUBCHEM_MMFF94_ENERGY>
65.0695

> <PUBCHEM_FEATURE_SELFOVERLAP>
48.418

> <PUBCHEM_SHAPE_FINGERPRINT>
10064457 181 17980189795060121661
10074138 170 16326848031698067666
10721379 63 17107693320101855677
1100329 8 18338518513349580954
11725454 13 16770183983665604087
13122387 1 18266462005690601944
13140716 1 18267871592872858858
14178342 30 17400931799508626112
14790565 3 18339630158007748124
18219364 16 18198912404904942557
19930381 70 18413109455087100803
21041028 32 18123756623408039102
22182937 141 17977382733447706198
23845131 108 18270963423739123043
35225 105 17190345648822927361
474 4 18408322172833029547
9981440 41 16452659082712195712

> <PUBCHEM_SHAPE_MULTIPOLES>
466.1
7.31
5.37
1.18
5.95
0.87
-0.07
-2.12
1.21
-4.09
1
0.71
-0.13
-0.68

> <PUBCHEM_SHAPE_SELFOVERLAP>
990.9

> <PUBCHEM_SHAPE_VOLUME>
259.9

> <PUBCHEM_COORDINATE_TYPE>
2
5
10

$$$$

