17396007
  -OEChem-06241222533D

 51 55  0     1  0  0  0  0  0999 V2000
   -3.3656    2.9402   -1.1058 O   0  0  0  0  0  0  0  0  0  0  0  0
   -0.6296   -1.2963   -0.3351 O   0  0  0  0  0  0  0  0  0  0  0  0
   -2.2343   -2.7691   -1.1049 O   0  0  0  0  0  0  0  0  0  0  0  0
    4.8385   -2.2919    1.0926 O   0  0  0  0  0  0  0  0  0  0  0  0
    1.8173   -0.2505   -0.7199 N   0  0  0  0  0  0  0  0  0  0  0  0
    4.0267   -0.2839    0.1845 N   0  0  0  0  0  0  0  0  0  0  0  0
   -2.8742   -0.6679   -0.1124 C   0  0  0  0  0  0  0  0  0  0  0  0
   -3.5984    1.7306   -0.3986 C   0  0  0  0  0  0  0  0  0  0  0  0
   -5.3152   -0.0494    0.0869 C   0  0  2  0  0  0  0  0  0  0  0  0
   -3.6845    0.6566    1.8796 C   0  0  1  0  0  0  0  0  0  0  0  0
   -2.6108    0.6477   -0.8688 C   0  0  0  0  0  0  0  0  0  0  0  0
   -4.3210   -1.1257   -0.3854 C   0  0  0  0  0  0  0  0  0  0  0  0
   -2.6989   -0.4238    1.4001 C   0  0  0  0  0  0  0  0  0  0  0  0
   -5.0385    1.2599   -0.6698 C   0  0  0  0  0  0  0  0  0  0  0  0
   -3.4162    1.9606    1.1114 C   0  0  0  0  0  0  0  0  0  0  0  0
   -5.1231    0.1893    1.5952 C   0  0  0  0  0  0  0  0  0  0  0  0
   -1.9040   -1.7130   -0.5826 C   0  0  0  0  0  0  0  0  0  0  0  0
    0.4025   -2.2031   -0.7356 C   0  0  0  0  0  0  0  0  0  0  0  0
    1.7057   -1.5766   -0.3858 C   0  0  0  0  0  0  0  0  0  0  0  0
    2.6724   -2.2885    0.2093 C   0  0  0  0  0  0  0  0  0  0  0  0
    2.9382    0.3434   -0.4363 C   0  0  0  0  0  0  0  0  0  0  0  0
    3.9576   -1.6331    0.5438 C   0  0  0  0  0  0  0  0  0  0  0  0
    3.0990    1.7845   -0.7840 C   0  0  0  0  0  0  0  0  0  0  0  0
    5.1928    0.4243    0.4549 C   0  0  0  0  0  0  0  0  0  0  0  0
    5.3371    1.7211    0.1419 C   0  0  0  0  0  0  0  0  0  0  0  0
    4.2442    2.4130   -0.4995 C   0  0  0  0  0  0  0  0  0  0  0  0
    6.5822    2.5017    0.4241 C   0  0  0  0  0  0  0  0  0  0  0  0
   -6.3410   -0.3811   -0.1083 H   0  0  0  0  0  0  0  0  0  0  0  0
   -3.5556    0.8255    2.9544 H   0  0  0  0  0  0  0  0  0  0  0  0
   -1.5822    1.0028   -0.7180 H   0  0  0  0  0  0  0  0  0  0  0  0
   -2.7028    0.4996   -1.9538 H   0  0  0  0  0  0  0  0  0  0  0  0
   -4.5299   -2.0717    0.1317 H   0  0  0  0  0  0  0  0  0  0  0  0
   -4.4695   -1.3182   -1.4563 H   0  0  0  0  0  0  0  0  0  0  0  0
   -1.6748   -0.1049    1.6338 H   0  0  0  0  0  0  0  0  0  0  0  0
   -2.8640   -1.3554    1.9573 H   0  0  0  0  0  0  0  0  0  0  0  0
   -5.1928    1.1197   -1.7475 H   0  0  0  0  0  0  0  0  0  0  0  0
   -5.7529    2.0363   -0.3667 H   0  0  0  0  0  0  0  0  0  0  0  0
   -4.0916    2.7544    1.4558 H   0  0  0  0  0  0  0  0  0  0  0  0
   -2.4017    2.3246    1.3195 H   0  0  0  0  0  0  0  0  0  0  0  0
   -5.8376    0.9430    1.9484 H   0  0  0  0  0  0  0  0  0  0  0  0
   -5.3332   -0.7335    2.1498 H   0  0  0  0  0  0  0  0  0  0  0  0
   -2.4543    3.2246   -0.9208 H   0  0  0  0  0  0  0  0  0  0  0  0
    0.2591   -3.1631   -0.2259 H   0  0  0  0  0  0  0  0  0  0  0  0
    0.3468   -2.3574   -1.8198 H   0  0  0  0  0  0  0  0  0  0  0  0
    2.5566   -3.3365    0.4606 H   0  0  0  0  0  0  0  0  0  0  0  0
    2.2738    2.2967   -1.2650 H   0  0  0  0  0  0  0  0  0  0  0  0
    5.9959   -0.1229    0.9376 H   0  0  0  0  0  0  0  0  0  0  0  0
    4.3662    3.4616   -0.7502 H   0  0  0  0  0  0  0  0  0  0  0  0
    6.3657    3.3465    1.0867 H   0  0  0  0  0  0  0  0  0  0  0  0
    7.0122    2.8907   -0.5052 H   0  0  0  0  0  0  0  0  0  0  0  0
    7.3472    1.8870    0.9108 H   0  0  0  0  0  0  0  0  0  0  0  0
  1  8  1  0  0  0  0
  1 42  1  0  0  0  0
  2 17  1  0  0  0  0
  2 18  1  0  0  0  0
  3 17  2  0  0  0  0
  4 22  2  0  0  0  0
  5 19  1  0  0  0  0
  5 21  2  0  0  0  0
  6 21  1  0  0  0  0
  6 22  1  0  0  0  0
  6 24  1  0  0  0  0
  7 11  1  0  0  0  0
  7 12  1  0  0  0  0
  7 13  1  0  0  0  0
  7 17  1  0  0  0  0
  8 11  1  0  0  0  0
  8 14  1  0  0  0  0
  8 15  1  0  0  0  0
  9 12  1  0  0  0  0
  9 14  1  0  0  0  0
  9 16  1  0  0  0  0
  9 28  1  0  0  0  0
 10 13  1  0  0  0  0
 10 15  1  0  0  0  0
 10 16  1  0  0  0  0
 10 29  1  0  0  0  0
 11 30  1  0  0  0  0
 11 31  1  0  0  0  0
 12 32  1  0  0  0  0
 12 33  1  0  0  0  0
 13 34  1  0  0  0  0
 13 35  1  0  0  0  0
 14 36  1  0  0  0  0
 14 37  1  0  0  0  0
 15 38  1  0  0  0  0
 15 39  1  0  0  0  0
 16 40  1  0  0  0  0
 16 41  1  0  0  0  0
 18 19  1  0  0  0  0
 18 43  1  0  0  0  0
 18 44  1  0  0  0  0
 19 20  2  0  0  0  0
 20 22  1  0  0  0  0
 20 45  1  0  0  0  0
 21 23  1  0  0  0  0
 23 26  2  0  0  0  0
 23 46  1  0  0  0  0
 24 25  2  0  0  0  0
 24 47  1  0  0  0  0
 25 26  1  0  0  0  0
 25 27  1  0  0  0  0
 26 48  1  0  0  0  0
 27 49  1  0  0  0  0
 27 50  1  0  0  0  0
 27 51  1  0  0  0  0
M  END
> <PUBCHEM_COMPOUND_CID>
17396007

> <PUBCHEM_CONFORMER_RMSD>
0.8

> <PUBCHEM_CONFORMER_DIVERSEORDER>
4
133
98
87
73
44
131
116
61
136
96
137
9
106
114
135
91
51
62
100
107
75
121
115
81
102
76
92
77
122
109
128
99
68
123
127
52
97
50
64
103
59
117
11
85
49
110
56
104
126
66
53
120
89
60
101
113
69
93
37
41
46
38
118
67
47
65
72
105
39
54
63
112
25
74
40
94
78
86
12
19
125
84
70
82
119
17
124
22
48
108
95
55
111
134
42
130
24
45
43
80
18
88
23
90
57
31
58
129
36
29
16
28
20
79
83
13
32
3
10
132
34
71
30
14
27
35
6
33
7
15
21
8
26
5
1
2

> <PUBCHEM_MMFF94_PARTIAL_CHARGES>
24
1 -0.68
17 0.66
18 0.42
19 0.03
2 -0.43
20 -0.14
21 0.5
22 0.62
23 -0.14
24 -0.04
25 -0.14
26 -0.15
27 0.14
3 -0.57
4 -0.57
42 0.4
45 0.15
46 0.15
47 0.15
48 0.15
5 -0.62
6 -0.23
7 0.06
8 0.28

> <PUBCHEM_EFFECTIVE_ROTOR_COUNT>
5.2

> <PUBCHEM_PHARMACOPHORE_FEATURES>
10
1 1 acceptor
1 1 donor
1 3 acceptor
1 4 acceptor
6 5 6 19 20 21 22 rings
6 6 21 23 24 25 26 rings
6 7 8 10 11 13 15 rings
6 7 8 9 11 12 14 rings
6 7 9 10 12 13 16 rings
6 8 9 10 14 15 16 rings

> <PUBCHEM_HEAVY_ATOM_COUNT>
27

> <PUBCHEM_ATOM_DEF_STEREO_COUNT>
0

> <PUBCHEM_ATOM_UDEF_STEREO_COUNT>
2

> <PUBCHEM_BOND_DEF_STEREO_COUNT>
0

> <PUBCHEM_BOND_UDEF_STEREO_COUNT>
0

> <PUBCHEM_ISOTOPIC_ATOM_COUNT>
0

> <PUBCHEM_COMPONENT_COUNT>
1

> <PUBCHEM_CACTVS_TAUTO_COUNT>
1

> <PUBCHEM_CONFORMER_ID>
0109712700000004

> <PUBCHEM_MMFF94_ENERGY>
74.827

> <PUBCHEM_FEATURE_SELFOVERLAP>
63.323

> <PUBCHEM_SHAPE_FINGERPRINT>
10 15 18201438043549616600
11370993 144 18059860622509590126
12107183 9 18123478434307981698
12166972 35 18115307903209132586
12422481 6 18198926823985920120
12596602 18 18202847647304990651
12760667 363 10735883859028900879
12788726 201 17168415068920807385
12925494 130 18126007302604921621
12978246 48 18409165519373059272
13583140 156 17916300713887269075
13785724 45 17976823417776057018
14251764 38 18267302225811237121
14341114 176 18272929436080051370
14341114 328 17968090936917253785
14394314 77 18260823791979943745
14739800 52 17968952894378616520
14790565 3 18055068767054891436
15183329 4 17822275891686693644
15188451 53 15912757281485405075
15475509 8 18261660585417374022
17844677 252 18340484585752356958
18393751 57 18411128161399797411
20511986 3 18335715909576018128
20715895 44 17976543041909553873
20739085 24 18131067165147707646
21033648 144 18341619195779322311
21033648 29 17060347348350299935
21033650 10 15213285456819631875
21315764 268 18272376424570183597
21623110 236 18335415777599139705
21792934 111 17845643859773319361
21859007 373 17273431684153992397
23559900 14 18044934825114522535
245318 6 17914883250099190244
2838139 119 18056490680238945269
3459 39 18115043900591866552
38570 142 18127949950972490340
437795 96 18129959939121449844
469060 322 17980746161319256579
474 4 18412261727163893154
474144 1 17487879134486334476
50009960 94 17125046796676892827
5081480 168 17461977050243874870
5104073 3 18272367611265468553
636775 72 17542230061282352112
7808743 9 18262239906920691054
9981440 41 18340765949150173867

> <PUBCHEM_SHAPE_MULTIPOLES>
522.21
15.07
3.14
1.25
9.71
0.02
0.39
7.85
2.97
2.22
-0.52
-1.25
0.14
-0.71

> <PUBCHEM_SHAPE_SELFOVERLAP>
1158.766

> <PUBCHEM_SHAPE_VOLUME>
271

> <PUBCHEM_COORDINATE_TYPE>
2
5
10

$$$$

