14247
  -OEChem-06241222423D

 21 20  0     0  0  0  0  0  0999 V2000
    2.4877   -0.4788   -0.0181 N   0  0  0  0  0  0  0  0  0  0  0  0
    3.6362    0.3679    0.0142 N   0  0  0  0  0  0  0  0  0  0  0  0
   -1.2248    0.3684   -0.0054 C   0  0  0  0  0  0  0  0  0  0  0  0
    0.0368   -0.4976   -0.0051 C   0  0  0  0  0  0  0  0  0  0  0  0
   -2.4890   -0.4903    0.0230 C   0  0  0  0  0  0  0  0  0  0  0  0
    1.2981    0.3644    0.0024 C   0  0  0  0  0  0  0  0  0  0  0  0
   -3.7449    0.3660   -0.0110 C   0  0  0  0  0  0  0  0  0  0  0  0
   -1.2156    1.0344    0.8660 H   0  0  0  0  0  0  0  0  0  0  0  0
   -1.2318    1.0052   -0.8985 H   0  0  0  0  0  0  0  0  0  0  0  0
    0.0341   -1.1463   -0.8902 H   0  0  0  0  0  0  0  0  0  0  0  0
    0.0297   -1.1526    0.8754 H   0  0  0  0  0  0  0  0  0  0  0  0
   -2.4963   -1.1712   -0.8361 H   0  0  0  0  0  0  0  0  0  0  0  0
   -2.4987   -1.1093    0.9277 H   0  0  0  0  0  0  0  0  0  0  0  0
    1.2927    1.0018    0.8963 H   0  0  0  0  0  0  0  0  0  0  0  0
    1.2884    1.0215   -0.8767 H   0  0  0  0  0  0  0  0  0  0  0  0
   -4.6368   -0.2682    0.0112 H   0  0  0  0  0  0  0  0  0  0  0  0
   -3.7846    1.0384    0.8520 H   0  0  0  0  0  0  0  0  0  0  0  0
   -3.7819    0.9725   -0.9216 H   0  0  0  0  0  0  0  0  0  0  0  0
    2.4958   -1.0883    0.7990 H   0  0  0  0  0  0  0  0  0  0  0  0
    3.7001    0.8197    0.9261 H   0  0  0  0  0  0  0  0  0  0  0  0
    4.4720   -0.2093   -0.0696 H   0  0  0  0  0  0  0  0  0  0  0  0
  1  2  1  0  0  0  0
  1  6  1  0  0  0  0
  1 19  1  0  0  0  0
  2 20  1  0  0  0  0
  2 21  1  0  0  0  0
  3  4  1  0  0  0  0
  3  5  1  0  0  0  0
  3  8  1  0  0  0  0
  3  9  1  0  0  0  0
  4  6  1  0  0  0  0
  4 10  1  0  0  0  0
  4 11  1  0  0  0  0
  5  7  1  0  0  0  0
  5 12  1  0  0  0  0
  5 13  1  0  0  0  0
  6 14  1  0  0  0  0
  6 15  1  0  0  0  0
  7 16  1  0  0  0  0
  7 17  1  0  0  0  0
  7 18  1  0  0  0  0
M  END
> <PUBCHEM_COMPOUND_CID>
14247

> <PUBCHEM_CONFORMER_RMSD>
0.6

> <PUBCHEM_CONFORMER_DIVERSEORDER>
1
32
33
14
30
13
31
3
4
22
27
16
12
17
21
15
2
23
9
26
28
11
25
5
20
6
24
19
10
8
7
29
18

> <PUBCHEM_MMFF94_PARTIAL_CHARGES>
6
1 -0.63
19 0.36
2 -0.72
20 0.36
21 0.36
6 0.27

> <PUBCHEM_EFFECTIVE_ROTOR_COUNT>
4

> <PUBCHEM_PHARMACOPHORE_FEATURES>
3
1 1 donor
1 2 donor
1 7 hydrophobe

> <PUBCHEM_HEAVY_ATOM_COUNT>
7

> <PUBCHEM_ATOM_DEF_STEREO_COUNT>
0

> <PUBCHEM_ATOM_UDEF_STEREO_COUNT>
0

> <PUBCHEM_BOND_DEF_STEREO_COUNT>
0

> <PUBCHEM_BOND_UDEF_STEREO_COUNT>
0

> <PUBCHEM_ISOTOPIC_ATOM_COUNT>
0

> <PUBCHEM_COMPONENT_COUNT>
1

> <PUBCHEM_CACTVS_TAUTO_COUNT>
1

> <PUBCHEM_CONFORMER_ID>
000037A700000001

> <PUBCHEM_MMFF94_ENERGY>
-4.1208

> <PUBCHEM_FEATURE_SELFOVERLAP>
16.548

> <PUBCHEM_SHAPE_FINGERPRINT>
11062470 55 18410573989615281957
12932764 1 15554176878201199491
14325111 11 18410573989504609607
14390081 3 18335423478180004865
5460574 1 9295289438875783490

> <PUBCHEM_SHAPE_MULTIPOLES>
134.09
6.39
0.77
0.59
0.74
0.02
0
-0.7
-0.01
-0.08
0
-0.08
0
0.01

> <PUBCHEM_SHAPE_SELFOVERLAP>
227.949

> <PUBCHEM_SHAPE_VOLUME>
90

> <PUBCHEM_COORDINATE_TYPE>
2
5
10

$$$$

