9186
  -OEChem-06261203293D

 42 47  0     0  0  0  0  0  0999 V2000
    0.1904   -0.6727    0.0000 C   0  0  0  0  0  0  0  0  0  0  0  0
   -0.1903    0.6728    0.0000 C   0  0  0  0  0  0  0  0  0  0  0  0
    2.5883   -0.0261    0.0001 C   0  0  0  0  0  0  0  0  0  0  0  0
   -2.5883    0.0261    0.0000 C   0  0  0  0  0  0  0  0  0  0  0  0
   -2.1747   -1.3278    0.0001 C   0  0  0  0  0  0  0  0  0  0  0  0
    2.1748    1.3278    0.0001 C   0  0  0  0  0  0  0  0  0  0  0  0
    1.5603   -1.0028    0.0000 C   0  0  0  0  0  0  0  0  0  0  0  0
   -1.5603    1.0028    0.0000 C   0  0  0  0  0  0  0  0  0  0  0  0
   -0.8081   -1.6577    0.0001 C   0  0  0  0  0  0  0  0  0  0  0  0
    0.8081    1.6578    0.0001 C   0  0  0  0  0  0  0  0  0  0  0  0
    3.9964   -0.3311   -0.0001 C   0  0  0  0  0  0  0  0  0  0  0  0
   -3.9964    0.3311   -0.0001 C   0  0  0  0  0  0  0  0  0  0  0  0
    4.9356    0.7330    0.0000 C   0  0  0  0  0  0  0  0  0  0  0  0
   -4.9356   -0.7331    0.0001 C   0  0  0  0  0  0  0  0  0  0  0  0
   -3.1291   -2.3488    0.0002 C   0  0  0  0  0  0  0  0  0  0  0  0
    3.1290    2.3488    0.0003 C   0  0  0  0  0  0  0  0  0  0  0  0
   -4.4887   -2.0562    0.0002 C   0  0  0  0  0  0  0  0  0  0  0  0
    4.4887    2.0562    0.0002 C   0  0  0  0  0  0  0  0  0  0  0  0
    4.5269   -1.6457   -0.0002 C   0  0  0  0  0  0  0  0  0  0  0  0
   -4.5269    1.6459   -0.0003 C   0  0  0  0  0  0  0  0  0  0  0  0
    6.3162    0.4699    0.0000 C   0  0  0  0  0  0  0  0  0  0  0  0
   -6.3162   -0.4699    0.0001 C   0  0  0  0  0  0  0  0  0  0  0  0
    5.9024   -1.8940   -0.0003 C   0  0  0  0  0  0  0  0  0  0  0  0
   -5.9023    1.8940   -0.0002 C   0  0  0  0  0  0  0  0  0  0  0  0
    6.7972   -0.8356   -0.0002 C   0  0  0  0  0  0  0  0  0  0  0  0
   -6.7973    0.8356   -0.0001 C   0  0  0  0  0  0  0  0  0  0  0  0
    1.8183   -2.0605    0.0000 H   0  0  0  0  0  0  0  0  0  0  0  0
   -1.8183    2.0604    0.0000 H   0  0  0  0  0  0  0  0  0  0  0  0
   -0.5132   -2.7078    0.0001 H   0  0  0  0  0  0  0  0  0  0  0  0
    0.5132    2.7079    0.0001 H   0  0  0  0  0  0  0  0  0  0  0  0
   -2.8245   -3.3938    0.0003 H   0  0  0  0  0  0  0  0  0  0  0  0
    2.8244    3.3939    0.0004 H   0  0  0  0  0  0  0  0  0  0  0  0
   -5.1971   -2.8826    0.0004 H   0  0  0  0  0  0  0  0  0  0  0  0
    5.1971    2.8826    0.0003 H   0  0  0  0  0  0  0  0  0  0  0  0
    3.8745   -2.5152   -0.0003 H   0  0  0  0  0  0  0  0  0  0  0  0
   -3.8747    2.5153   -0.0004 H   0  0  0  0  0  0  0  0  0  0  0  0
    7.0352    1.2873    0.0001 H   0  0  0  0  0  0  0  0  0  0  0  0
   -7.0352   -1.2873    0.0002 H   0  0  0  0  0  0  0  0  0  0  0  0
    6.2681   -2.9167   -0.0004 H   0  0  0  0  0  0  0  0  0  0  0  0
   -6.2681    2.9166   -0.0003 H   0  0  0  0  0  0  0  0  0  0  0  0
    7.8666   -1.0231   -0.0002 H   0  0  0  0  0  0  0  0  0  0  0  0
   -7.8666    1.0232   -0.0001 H   0  0  0  0  0  0  0  0  0  0  0  0
  1  2  2  0  0  0  0
  1  7  1  0  0  0  0
  1  9  1  0  0  0  0
  2  8  1  0  0  0  0
  2 10  1  0  0  0  0
  3  6  1  0  0  0  0
  3  7  2  0  0  0  0
  3 11  1  0  0  0  0
  4  5  1  0  0  0  0
  4  8  2  0  0  0  0
  4 12  1  0  0  0  0
  5  9  2  0  0  0  0
  5 15  1  0  0  0  0
  6 10  2  0  0  0  0
  6 16  1  0  0  0  0
  7 27  1  0  0  0  0
  8 28  1  0  0  0  0
  9 29  1  0  0  0  0
 10 30  1  0  0  0  0
 11 13  1  0  0  0  0
 11 19  2  0  0  0  0
 12 14  1  0  0  0  0
 12 20  2  0  0  0  0
 13 18  1  0  0  0  0
 13 21  2  0  0  0  0
 14 17  1  0  0  0  0
 14 22  2  0  0  0  0
 15 17  2  0  0  0  0
 15 31  1  0  0  0  0
 16 18  2  0  0  0  0
 16 32  1  0  0  0  0
 17 33  1  0  0  0  0
 18 34  1  0  0  0  0
 19 23  1  0  0  0  0
 19 35  1  0  0  0  0
 20 24  1  0  0  0  0
 20 36  1  0  0  0  0
 21 25  1  0  0  0  0
 21 37  1  0  0  0  0
 22 26  1  0  0  0  0
 22 38  1  0  0  0  0
 23 25  2  0  0  0  0
 23 39  1  0  0  0  0
 24 26  2  0  0  0  0
 24 40  1  0  0  0  0
 25 41  1  0  0  0  0
 26 42  1  0  0  0  0
M  END
> <PUBCHEM_COMPOUND_CID>
9186

> <PUBCHEM_CONFORMER_RMSD>
0.6

> <PUBCHEM_CONFORMER_DIVERSEORDER>
1

> <PUBCHEM_MMFF94_PARTIAL_CHARGES>
32
10 -0.15
15 -0.15
16 -0.15
17 -0.15
18 -0.15
19 -0.15
20 -0.15
21 -0.15
22 -0.15
23 -0.15
24 -0.15
25 -0.15
26 -0.15
27 0.15
28 0.15
29 0.15
30 0.15
31 0.15
32 0.15
33 0.15
34 0.15
35 0.15
36 0.15
37 0.15
38 0.15
39 0.15
40 0.15
41 0.15
42 0.15
7 -0.15
8 -0.15
9 -0.15

> <PUBCHEM_EFFECTIVE_ROTOR_COUNT>
0

> <PUBCHEM_PHARMACOPHORE_FEATURES>
6
6 1 2 3 6 7 10 rings
6 1 2 4 5 8 9 rings
6 11 13 19 21 23 25 rings
6 12 14 20 22 24 26 rings
6 3 6 11 13 16 18 rings
6 4 5 12 14 15 17 rings

> <PUBCHEM_HEAVY_ATOM_COUNT>
26

> <PUBCHEM_ATOM_DEF_STEREO_COUNT>
0

> <PUBCHEM_ATOM_UDEF_STEREO_COUNT>
0

> <PUBCHEM_BOND_DEF_STEREO_COUNT>
0

> <PUBCHEM_BOND_UDEF_STEREO_COUNT>
0

> <PUBCHEM_ISOTOPIC_ATOM_COUNT>
0

> <PUBCHEM_COMPONENT_COUNT>
1

> <PUBCHEM_CACTVS_TAUTO_COUNT>
1

> <PUBCHEM_CONFORMER_ID>
000023E200000001

> <PUBCHEM_MMFF94_ENERGY>
97.3565

> <PUBCHEM_FEATURE_SELFOVERLAP>
30.565

> <PUBCHEM_SHAPE_FINGERPRINT>
10050765 1 18266178322863200842
100830 39 18339924917470993597
10319926 262 18337401456437847867
10595046 47 18266178331426755381
10835480 77 18336553715972739648
11315181 36 17676486133799499171
11524674 6 17240485805885695599
11578080 2 17097232532220820978
11719270 70 18040999566014601750
12107183 9 18050286173886151618
12166972 35 18411697664624284873
12236239 1 18410573972266549256
12516196 113 18040719168979327360
12788726 201 17749952292611869473
13533116 47 18259987063725319760
13785724 45 17976538639658187914
14251764 18 18410575084663078966
14341114 176 18411978048705097857
14790565 3 18411979139594947663
14933364 13 18412543214792955229
15021287 119 17632569461980729221
15183329 4 18410856576819658800
15196674 1 18410856525280051201
15361156 5 17988071206308706756
15419008 42 17899135189498185173
15788980 27 18271804601156130787
16087824 20 18338796835430867668
17492 89 18053098428879171483
17844677 252 18338791226097200545
1813 80 16917073235045578796
18681886 176 18333738991637118947
19611394 137 17986940870650272243
20511986 3 18113911424657388066
21033648 29 17895492331782461522
21130935 74 18333450924012852426
21236236 1 18409450267810850399
21267235 1 18411694378915735466
21279426 13 18410855490192933175
21315763 28 18410294696904145751
21792934 111 18335714879337878928
23522609 53 18195777783048965341
23536379 177 18410856563934757072
23559900 14 18335708208372842904
23569943 247 17273428381092338834
249057 3 18410855468718096589
2838139 119 18335424578055831069
3004659 81 18342738525087379712
3103668 31 17985831660375360596
335352 9 18410575093253013933
350125 39 18411701001961157644
3545911 37 18409729560231894657
3633792 109 18335987583996762293
38695281 34 18259703415015739831
4017518 198 17167856479335384862
404807 14 17177976606888949806
4073 2 18059289851742794730
4214541 1 18410575067863225733
5104073 3 18410575050303341424
559249 180 18410294718220778595
6138700 20 18340204188765237706
6328613 192 18342172250201939700
7226269 152 18113616824535044833
9965369 4 18409730681603520001
9995097 60 18408886234871555750
9996256 80 18409730634559502071

> <PUBCHEM_SHAPE_MULTIPOLES>
535.07
18.02
2.43
0.62
0
0
0
0
0
0
0
0
0
0

> <PUBCHEM_SHAPE_SELFOVERLAP>
1252.507

> <PUBCHEM_SHAPE_VOLUME>
243

> <PUBCHEM_COORDINATE_TYPE>
2
5
10

$$$$

