586152
  -OEChem-06241222453D

 24 25  0     1  0  0  0  0  0999 V2000
   -1.7767    1.5010   -0.1233 S   0  0  0  0  0  0  0  0  0  0  0  0
    3.5603   -0.5156   -0.2830 O   0  0  0  0  0  0  0  0  0  0  0  0
    0.2520   -0.4801    0.2603 C   0  0  1  0  0  0  0  0  0  0  0  0
    1.2672    0.0190   -0.7012 C   0  0  2  0  0  0  0  0  0  0  0  0
    0.8500   -1.4058   -0.7582 C   0  0  0  0  0  0  0  0  0  0  0  0
    0.7023   -0.6367    1.6740 C   0  0  0  0  0  0  0  0  0  0  0  0
   -1.2373   -0.1022    0.0861 C   0  0  0  0  0  0  0  0  0  0  0  0
    2.6632    0.3242   -0.2295 C   0  0  0  0  0  0  0  0  0  0  0  0
   -2.2593   -1.0139    0.0834 C   0  0  0  0  0  0  0  0  0  0  0  0
    2.9085    1.7080    0.3083 C   0  0  0  0  0  0  0  0  0  0  0  0
   -3.5238   -0.3822   -0.0955 C   0  0  0  0  0  0  0  0  0  0  0  0
   -3.4063    0.9845   -0.2212 C   0  0  0  0  0  0  0  0  0  0  0  0
    0.9387    0.6482   -1.5225 H   0  0  0  0  0  0  0  0  0  0  0  0
    0.2522   -1.7143   -1.6093 H   0  0  0  0  0  0  0  0  0  0  0  0
    1.5268   -2.1806   -0.4166 H   0  0  0  0  0  0  0  0  0  0  0  0
    0.7352    0.3346    2.1795 H   0  0  0  0  0  0  0  0  0  0  0  0
    0.0055   -1.2749    2.2299 H   0  0  0  0  0  0  0  0  0  0  0  0
    1.6893   -1.1020    1.7712 H   0  0  0  0  0  0  0  0  0  0  0  0
   -2.1225   -2.0811    0.2036 H   0  0  0  0  0  0  0  0  0  0  0  0
    3.4131    2.3058   -0.4544 H   0  0  0  0  0  0  0  0  0  0  0  0
    1.9640    2.1886    0.5766 H   0  0  0  0  0  0  0  0  0  0  0  0
    3.5300    1.6429    1.2051 H   0  0  0  0  0  0  0  0  0  0  0  0
   -4.4715   -0.9036   -0.1300 H   0  0  0  0  0  0  0  0  0  0  0  0
   -4.1995    1.7044   -0.3657 H   0  0  0  0  0  0  0  0  0  0  0  0
  1  7  1  0  0  0  0
  1 12  1  0  0  0  0
  2  8  2  0  0  0  0
  3  4  1  0  0  0  0
  3  5  1  0  0  0  0
  3  6  1  0  0  0  0
  3  7  1  0  0  0  0
  4  5  1  0  0  0  0
  4  8  1  0  0  0  0
  4 13  1  0  0  0  0
  5 14  1  0  0  0  0
  5 15  1  0  0  0  0
  6 16  1  0  0  0  0
  6 17  1  0  0  0  0
  6 18  1  0  0  0  0
  7  9  2  0  0  0  0
  8 10  1  0  0  0  0
  9 11  1  0  0  0  0
  9 19  1  0  0  0  0
 10 20  1  0  0  0  0
 10 21  1  0  0  0  0
 10 22  1  0  0  0  0
 11 12  2  0  0  0  0
 11 23  1  0  0  0  0
 12 24  1  0  0  0  0
M  END
> <PUBCHEM_COMPOUND_CID>
586152

> <PUBCHEM_CONFORMER_RMSD>
0.6

> <PUBCHEM_CONFORMER_DIVERSEORDER>
11
29
9
31
23
25
6
8
26
24
30
22
10
16
5
13
12
27
28
7
15
17
18
14
2
1
19
21
3
4
20

> <PUBCHEM_MMFF94_PARTIAL_CHARGES>
18
1 -0.08
10 0.06
11 -0.15
12 -0.11
13 0.1
14 0.1
15 0.1
19 0.15
2 -0.57
23 0.15
24 0.15
3 -0.01
4 -0.1
5 -0.2
6 0.09
7 -0.05
8 0.51
9 -0.15

> <PUBCHEM_EFFECTIVE_ROTOR_COUNT>
2.6

> <PUBCHEM_PHARMACOPHORE_FEATURES>
2
1 2 acceptor
5 1 7 9 11 12 rings

> <PUBCHEM_HEAVY_ATOM_COUNT>
12

> <PUBCHEM_ATOM_DEF_STEREO_COUNT>
0

> <PUBCHEM_ATOM_UDEF_STEREO_COUNT>
2

> <PUBCHEM_BOND_DEF_STEREO_COUNT>
0

> <PUBCHEM_BOND_UDEF_STEREO_COUNT>
0

> <PUBCHEM_ISOTOPIC_ATOM_COUNT>
0

> <PUBCHEM_COMPONENT_COUNT>
1

> <PUBCHEM_CACTVS_TAUTO_COUNT>
3

> <PUBCHEM_CONFORMER_ID>
0008F1A80000000B

> <PUBCHEM_MMFF94_ENERGY>
19.1602

> <PUBCHEM_FEATURE_SELFOVERLAP>
10.148

> <PUBCHEM_SHAPE_FINGERPRINT>
10608611 8 18409450305874985221
11132069 177 18341619182978802845
12162725 195 18410854360748662748
12897270 3 18333728031038860773
12932764 1 17846223297061217373
14325111 11 18409448063901712404
14390081 3 18413108368323140213
14993402 34 15554441882084149926
15775835 57 17845934142783416085
16945 1 18339631291609185806
170605 34 18343301474312813706
18175812 5 18409165489360561701
18186145 218 17749658624064456680
19422 9 7493292152764977932
20201158 50 18260545658149100295
20281407 28 9151174267985110645
20361792 2 14273741788806157177
20653085 51 18339067225233338352
20671657 53 17535450841070951374
21028194 46 18412259532356054796
22485316 2 8574716779951888100
230 275 17632570586892336533
23402539 116 18411427202175186903
265663 24 18342745108892644250
305870 269 17489030486468916883
3248919 1 17023175046068553967
4047638 21 18410007749653705929
5084963 1 17917709093571175156
528886 8 18260832596081592231
6333449 129 18410291419743664365
7364860 26 18126571347215412043

> <PUBCHEM_SHAPE_MULTIPOLES>
244.93
5.8
1.51
0.97
0.43
0.42
-0.31
1.33
0.51
-0.1
0.03
-0.3
-0.21
0.24

> <PUBCHEM_SHAPE_SELFOVERLAP>
497.707

> <PUBCHEM_SHAPE_VOLUME>
145.5

> <PUBCHEM_COORDINATE_TYPE>
2
5
10

$$$$

