4646
  -OEChem-06261200153D

 29 30  0     0  0  0  0  0  0999 V2000
   -5.6386   -1.7228   -0.1689 O   0  0  0  0  0  0  0  0  0  0  0  0
   -5.6711    0.2825    0.9183 O   0  0  0  0  0  0  0  0  0  0  0  0
    3.5240    0.0462   -0.2245 N   0  0  0  0  0  0  0  0  0  0  0  0
    4.7489   -0.7767    1.4047 N   0  0  0  0  0  0  0  0  0  0  0  0
    2.7065    1.0019   -0.9790 C   0  0  0  0  0  0  0  0  0  0  0  0
    1.2562    0.8679   -0.6585 C   0  0  0  0  0  0  0  0  0  0  0  0
    0.4559   -0.0021   -1.3991 C   0  0  0  0  0  0  0  0  0  0  0  0
    0.6999    1.6118    0.3822 C   0  0  0  0  0  0  0  0  0  0  0  0
   -1.4566    0.6156   -0.0587 C   0  0  0  0  0  0  0  0  0  0  0  0
   -0.9005   -0.1282   -1.0993 C   0  0  0  0  0  0  0  0  0  0  0  0
   -0.6565    1.4856    0.6821 C   0  0  0  0  0  0  0  0  0  0  0  0
    3.8502   -1.2011   -0.6323 C   0  0  0  0  0  0  0  0  0  0  0  0
    4.0727    0.2721    0.9915 C   0  0  0  0  0  0  0  0  0  0  0  0
    4.6146   -1.6985    0.3968 C   0  0  0  0  0  0  0  0  0  0  0  0
   -2.8709    0.4833    0.2546 C   0  0  0  0  0  0  0  0  0  0  0  0
   -3.6553   -0.5587   -0.0995 C   0  0  0  0  0  0  0  0  0  0  0  0
   -5.0795   -0.5788    0.2898 C   0  0  0  0  0  0  0  0  0  0  0  0
    2.9016    0.8310   -2.0449 H   0  0  0  0  0  0  0  0  0  0  0  0
    3.0795    2.0072   -0.7476 H   0  0  0  0  0  0  0  0  0  0  0  0
    0.8764   -0.5842   -2.2150 H   0  0  0  0  0  0  0  0  0  0  0  0
    1.3124    2.2927    0.9674 H   0  0  0  0  0  0  0  0  0  0  0  0
   -1.4880   -0.8027   -1.7152 H   0  0  0  0  0  0  0  0  0  0  0  0
   -1.0720    2.0725    1.4979 H   0  0  0  0  0  0  0  0  0  0  0  0
    3.5328   -1.6242   -1.5753 H   0  0  0  0  0  0  0  0  0  0  0  0
    3.9577    1.2003    1.5346 H   0  0  0  0  0  0  0  0  0  0  0  0
    5.0747   -2.6736    0.4633 H   0  0  0  0  0  0  0  0  0  0  0  0
   -3.3000    1.3002    0.8313 H   0  0  0  0  0  0  0  0  0  0  0  0
   -3.2841   -1.4150   -0.6510 H   0  0  0  0  0  0  0  0  0  0  0  0
   -6.5896   -1.7860    0.0637 H   0  0  0  0  0  0  0  0  0  0  0  0
  1 17  1  0  0  0  0
  1 29  1  0  0  0  0
  2 17  2  0  0  0  0
  3  5  1  0  0  0  0
  3 12  1  0  0  0  0
  3 13  1  0  0  0  0
  4 13  2  0  0  0  0
  4 14  1  0  0  0  0
  5  6  1  0  0  0  0
  5 18  1  0  0  0  0
  5 19  1  0  0  0  0
  6  7  2  0  0  0  0
  6  8  1  0  0  0  0
  7 10  1  0  0  0  0
  7 20  1  0  0  0  0
  8 11  2  0  0  0  0
  8 21  1  0  0  0  0
  9 10  2  0  0  0  0
  9 11  1  0  0  0  0
  9 15  1  0  0  0  0
 10 22  1  0  0  0  0
 11 23  1  0  0  0  0
 12 14  2  0  0  0  0
 12 24  1  0  0  0  0
 13 25  1  0  0  0  0
 14 26  1  0  0  0  0
 15 16  2  0  0  0  0
 15 27  1  0  0  0  0
 16 17  1  0  0  0  0
 16 28  1  0  0  0  0
M  END
> <PUBCHEM_COMPOUND_CID>
4646

> <PUBCHEM_CONFORMER_RMSD>
0.6

> <PUBCHEM_CONFORMER_DIVERSEORDER>
1
17
18
7
15
16
12
14
8
9
4
6
2
13
11
5
3
10

> <PUBCHEM_MMFF94_PARTIAL_CHARGES>
27
1 -0.65
10 -0.15
11 -0.15
12 -0.3
13 0.04
14 0.08
15 -0.18
16 -0.14
17 0.71
2 -0.57
20 0.15
21 0.15
22 0.15
23 0.15
24 0.15
25 0.15
26 0.15
27 0.15
28 0.15
29 0.5
3 0.05
4 -0.57
5 0.4
6 -0.14
7 -0.15
8 -0.15
9 0.03

> <PUBCHEM_EFFECTIVE_ROTOR_COUNT>
4

> <PUBCHEM_PHARMACOPHORE_FEATURES>
6
1 1 acceptor
1 2 acceptor
3 1 2 17 anion
3 3 4 13 cation
5 3 4 12 13 14 rings
6 6 7 8 9 10 11 rings

> <PUBCHEM_HEAVY_ATOM_COUNT>
17

> <PUBCHEM_ATOM_DEF_STEREO_COUNT>
0

> <PUBCHEM_ATOM_UDEF_STEREO_COUNT>
0

> <PUBCHEM_BOND_DEF_STEREO_COUNT>
0

> <PUBCHEM_BOND_UDEF_STEREO_COUNT>
1

> <PUBCHEM_ISOTOPIC_ATOM_COUNT>
0

> <PUBCHEM_COMPONENT_COUNT>
1

> <PUBCHEM_CACTVS_TAUTO_COUNT>
1

> <PUBCHEM_CONFORMER_ID>
0000122600000001

> <PUBCHEM_MMFF94_ENERGY>
35.0779

> <PUBCHEM_FEATURE_SELFOVERLAP>
30.501

> <PUBCHEM_SHAPE_FINGERPRINT>
10378564 45 13470423170283370450
106641 1 17458633254810726850
10912923 1 18337379453737127629
11128504 68 12607399988019352963
11796584 16 18131914849652211459
11858739 19 18343587364864194471
12251169 10 17313394426513647196
12596602 18 17530966869148685403
12644460 14 18115865209607415832
12670543 26 13758085116224535019
12670546 177 12751233701186940363
12839892 36 17967534575602479423
12892183 10 17822859792005385288
12954195 1 15194741136902790983
13533116 47 18343018882918990880
13675066 3 18113622317217889468
14178342 30 17678441177006178089
1420 369 18411135861511001386
14251764 75 14636867439904826682
14366163 111 10015865379387055326
14528608 73 10087638187207815867
14911166 2 13470685940645839069
15342168 16 4967598504096793472
15885798 251 18410572894256502044
17862501 102 18409446986144502347
17959699 21 9367351439597922319
1813 80 18059851783519759788
18785283 64 15792875307714777003
193927 3 18130776889065563002
19784866 140 15769780165127029429
19784866 240 17989202694126360662
200 152 17704072910320534461
20369508 70 16415484835548742772
20645477 70 17489867133524356038
20871999 31 13973686169434912710
212847 35 8214145144837448566
21354914 88 18059855073306302887
21637258 2 17989218048455122026
21652331 79 6771869558425887323
22079108 93 13767933407694128205
22182313 1 17169537717764402749
22218785 32 13542463167787597856
22713019 99 16200148802699214600
22854114 59 15863785106081545765
23253445 4 17167585977060474344
23402539 116 18412547613673143829
23559900 14 17560229207333453556
25147074 1 17242469208576397621
270888 7 6626879198493157586
2838139 119 7565342007288117810
2916195 48 4751156311653913651
29717793 49 17346321471128792311
3286 77 17704076205040511780
33382 64 17846774109637598675
3472631 163 8934700215944536138
34797466 226 11671770594465518147
351380 3 18343585157166939402
4047638 21 5184351806680053636
4072396 5 17894628184325524117
42 15 18335137600619086221
4259306 186 16558755636726543914
465052 167 18201430372321437254
474 4 5472851580265480962
4990 188 14836404713863345301
5104073 3 17968648304030369619
5374978 207 17966969426509361232
76465 3 18272654553719800157
960060 61 15769771368933864886

> <PUBCHEM_SHAPE_MULTIPOLES>
328.15
12.21
1.53
1.16
9.12
0.14
-0.07
6.81
3.88
-0.38
0.12
-0.77
-0.03
-0.51

> <PUBCHEM_SHAPE_SELFOVERLAP>
701.283

> <PUBCHEM_SHAPE_VOLUME>
183.9

> <PUBCHEM_COORDINATE_TYPE>
2
5
10

$$$$

