854045
  -OEChem-06241222473D

 26 27  0     1  0  0  0  0  0999 V2000
    1.2283    2.3770    0.3697 S   0  0  0  0  0  0  0  0  0  0  0  0
   -2.1659    0.8358   -1.6332 O   0  0  0  0  0  0  0  0  0  0  0  0
   -3.9165    0.7370   -0.1955 O   0  0  0  0  0  0  0  0  0  0  0  0
   -3.2647   -1.8915    0.3467 N   0  0  0  0  0  0  0  0  0  0  0  0
   -1.2690   -0.6528    1.1004 C   0  0  0  0  0  0  0  0  0  0  0  0
   -0.1422    0.2492    0.7536 C   0  0  0  0  0  0  0  0  0  0  0  0
   -2.1955   -0.9884   -0.0873 C   0  0  2  0  0  0  0  0  0  0  0  0
    1.1437   -0.2065    0.3075 C   0  0  0  0  0  0  0  0  0  0  0  0
    2.0027    0.8683    0.0578 C   0  0  0  0  0  0  0  0  0  0  0  0
   -0.2273    1.6191    0.8304 C   0  0  0  0  0  0  0  0  0  0  0  0
    1.6341   -1.5180    0.0978 C   0  0  0  0  0  0  0  0  0  0  0  0
    3.3229    0.6671   -0.3907 C   0  0  0  0  0  0  0  0  0  0  0  0
   -2.8711    0.2631   -0.6226 C   0  0  0  0  0  0  0  0  0  0  0  0
    2.9433   -1.7210   -0.3465 C   0  0  0  0  0  0  0  0  0  0  0  0
    3.7770   -0.6384   -0.5880 C   0  0  0  0  0  0  0  0  0  0  0  0
   -1.8605   -0.1842    1.9007 H   0  0  0  0  0  0  0  0  0  0  0  0
   -0.8799   -1.5825    1.5357 H   0  0  0  0  0  0  0  0  0  0  0  0
   -1.6378   -1.4701   -0.8988 H   0  0  0  0  0  0  0  0  0  0  0  0
   -1.0753    2.2159    1.1371 H   0  0  0  0  0  0  0  0  0  0  0  0
    0.9988   -2.3820    0.2766 H   0  0  0  0  0  0  0  0  0  0  0  0
    3.9827    1.5086   -0.5821 H   0  0  0  0  0  0  0  0  0  0  0  0
   -2.8561   -2.7466    0.7221 H   0  0  0  0  0  0  0  0  0  0  0  0
   -3.8209   -2.1741   -0.4598 H   0  0  0  0  0  0  0  0  0  0  0  0
    3.3077   -2.7322   -0.5043 H   0  0  0  0  0  0  0  0  0  0  0  0
    4.7935   -0.8060   -0.9338 H   0  0  0  0  0  0  0  0  0  0  0  0
   -2.5988    1.6513   -1.9644 H   0  0  0  0  0  0  0  0  0  0  0  0
  1  9  1  0  0  0  0
  1 10  1  0  0  0  0
  2 13  1  0  0  0  0
  2 26  1  0  0  0  0
  3 13  2  0  0  0  0
  4  7  1  0  0  0  0
  4 22  1  0  0  0  0
  4 23  1  0  0  0  0
  5  6  1  0  0  0  0
  5  7  1  0  0  0  0
  5 16  1  0  0  0  0
  5 17  1  0  0  0  0
  6  8  1  0  0  0  0
  6 10  2  0  0  0  0
  7 13  1  0  0  0  0
  7 18  1  0  0  0  0
  8  9  1  0  0  0  0
  8 11  2  0  0  0  0
  9 12  2  0  0  0  0
 10 19  1  0  0  0  0
 11 14  1  0  0  0  0
 11 20  1  0  0  0  0
 12 15  1  0  0  0  0
 12 21  1  0  0  0  0
 14 15  2  0  0  0  0
 14 24  1  0  0  0  0
 15 25  1  0  0  0  0
M  END
> <PUBCHEM_COMPOUND_CID>
854045

> <PUBCHEM_CONFORMER_RMSD>
0.6

> <PUBCHEM_CONFORMER_DIVERSEORDER>
1
4
5
10
16
7
18
11
2
13
6
17
14
3
12
8
15
9

> <PUBCHEM_MMFF94_PARTIAL_CHARGES>
22
1 -0.08
10 -0.11
11 -0.15
12 -0.15
13 0.66
14 -0.15
15 -0.15
19 0.15
2 -0.65
20 0.15
21 0.15
22 0.36
23 0.36
24 0.15
25 0.15
26 0.5
3 -0.57
4 -0.99
5 0.18
6 -0.18
7 0.33
9 0.04

> <PUBCHEM_EFFECTIVE_ROTOR_COUNT>
3

> <PUBCHEM_PHARMACOPHORE_FEATURES>
7
1 2 acceptor
1 3 acceptor
1 4 cation
1 4 donor
3 2 3 13 anion
5 1 6 8 9 10 rings
6 8 9 11 12 14 15 rings

> <PUBCHEM_HEAVY_ATOM_COUNT>
15

> <PUBCHEM_ATOM_DEF_STEREO_COUNT>
1

> <PUBCHEM_ATOM_UDEF_STEREO_COUNT>
0

> <PUBCHEM_BOND_DEF_STEREO_COUNT>
0

> <PUBCHEM_BOND_UDEF_STEREO_COUNT>
0

> <PUBCHEM_ISOTOPIC_ATOM_COUNT>
0

> <PUBCHEM_COMPONENT_COUNT>
1

> <PUBCHEM_CACTVS_TAUTO_COUNT>
1

> <PUBCHEM_CONFORMER_ID>
000D081D00000001

> <PUBCHEM_MMFF94_ENERGY>
24.6647

> <PUBCHEM_FEATURE_SELFOVERLAP>
35.639

> <PUBCHEM_SHAPE_FINGERPRINT>
10498660 4 16987736730334359677
11471102 20 18409168809301741901
11578080 2 16878527707424214057
116883 192 17900534876627479172
12491281 212 15482667996358232932
12654215 9 18411424998988910440
12932764 1 17775293767667476451
13296908 3 18334575719991338794
13693222 15 8430310264460447071
13705890 14 18409448064218249426
15219456 202 18339927004497525753
15906896 17 17389087151468269625
16945 1 18411423933488900648
17834072 14 18336559282481768976
18186145 218 18131073757136341103
18619055 16 18409167735728976290
19433438 38 18201720630722422622
200 152 18114463448308823894
20201158 50 18411701001866017170
20361792 2 17385730196318169220
20528008 55 7420938764593157541
20645477 70 18040436568388687541
20671657 53 18261386780407669516
221490 88 18266732481193127930
22802520 49 18343305825436743249
23114952 82 18201151083899864180
23402539 116 18334580144604180246
23557571 272 16914240764201093731
23559900 14 18410859897747484522
25 1 18200877378207495371
2748010 2 17760352302663534568
2838139 119 16342843340938715212
3071541 158 18341610378543720468
3323516 105 18340204102986925299
6338986 31 18264496255168085450
7364860 26 18116154376659251624
74978 22 18334014969361613097
81228 2 18045493381600639144
8809292 202 18343016692237964451
93112 12 18410576171558901679

> <PUBCHEM_SHAPE_MULTIPOLES>
295.82
6.2
2.09
1
1.64
0.39
0.13
-1.73
1.67
-0.57
-0.23
0.44
0.13
0.52

> <PUBCHEM_SHAPE_SELFOVERLAP>
621.44

> <PUBCHEM_SHAPE_VOLUME>
167.8

> <PUBCHEM_COORDINATE_TYPE>
2
5
10

$$$$

