17395308
  -OEChem-06241222493D

 46 48  0     0  0  0  0  0  0999 V2000
   -4.9599   -1.2353   -0.4617 O   0  0  0  0  0  0  0  0  0  0  0  0
    3.1441   -2.8929    1.2513 O   0  0  0  0  0  0  0  0  0  0  0  0
   -0.3596    4.0945    0.6662 O   0  0  0  0  0  0  0  0  0  0  0  0
    2.6594    1.2551    1.0385 O   0  0  0  0  0  0  0  0  0  0  0  0
    3.6116   -1.0173   -0.0633 N   0  0  0  0  0  0  0  0  0  0  0  0
    2.2023    2.2259   -1.0231 N   0  0  0  0  0  0  0  0  0  0  0  0
   -0.9180   -1.2607    0.5612 C   0  0  0  0  0  0  0  0  0  0  0  0
    1.3574   -1.9976    0.1166 C   0  0  0  0  0  0  0  0  0  0  0  0
   -1.3652   -1.9803   -0.5724 C   0  0  0  0  0  0  0  0  0  0  0  0
    0.4467   -1.2795    0.8922 C   0  0  0  0  0  0  0  0  0  0  0  0
    3.1216    0.0102   -0.9797 C   0  0  0  0  0  0  0  0  0  0  0  0
    2.7675   -2.0067    0.4730 C   0  0  0  0  0  0  0  0  0  0  0  0
    0.9178   -2.7052   -0.9983 C   0  0  0  0  0  0  0  0  0  0  0  0
   -0.4344   -2.6974   -1.3419 C   0  0  0  0  0  0  0  0  0  0  0  0
   -2.7298   -1.9612   -0.9034 C   0  0  0  0  0  0  0  0  0  0  0  0
   -1.8485   -0.5435    1.3306 C   0  0  0  0  0  0  0  0  0  0  0  0
    2.6603    1.2160   -0.1893 C   0  0  0  0  0  0  0  0  0  0  0  0
   -3.6405   -1.2434   -0.1278 C   0  0  0  0  0  0  0  0  0  0  0  0
    5.0302   -0.9507    0.2585 C   0  0  0  0  0  0  0  0  0  0  0  0
   -3.2009   -0.5359    0.9872 C   0  0  0  0  0  0  0  0  0  0  0  0
    1.6572    3.4719   -0.5340 C   0  0  0  0  0  0  0  0  0  0  0  0
    0.1834    3.3212   -0.3103 C   0  0  0  0  0  0  0  0  0  0  0  0
   -0.7824    2.5391   -0.9001 C   0  0  0  0  0  0  0  0  0  0  0  0
   -1.9967    2.8521   -0.2440 C   0  0  0  0  0  0  0  0  0  0  0  0
   -1.6865    3.8032    0.6999 C   0  0  0  0  0  0  0  0  0  0  0  0
   -5.8367   -0.4815    0.3741 C   0  0  0  0  0  0  0  0  0  0  0  0
    0.7992   -0.7343    1.7661 H   0  0  0  0  0  0  0  0  0  0  0  0
    3.9303    0.3032   -1.6587 H   0  0  0  0  0  0  0  0  0  0  0  0
    2.2914   -0.3579   -1.5876 H   0  0  0  0  0  0  0  0  0  0  0  0
    1.6191   -3.2675   -1.6095 H   0  0  0  0  0  0  0  0  0  0  0  0
   -0.7557   -3.2573   -2.2178 H   0  0  0  0  0  0  0  0  0  0  0  0
   -3.0901   -2.5091   -1.7723 H   0  0  0  0  0  0  0  0  0  0  0  0
   -1.5257    0.0179    2.2050 H   0  0  0  0  0  0  0  0  0  0  0  0
    5.3048   -1.7270    0.9772 H   0  0  0  0  0  0  0  0  0  0  0  0
    5.6079   -1.0958   -0.6588 H   0  0  0  0  0  0  0  0  0  0  0  0
    5.2574    0.0292    0.6876 H   0  0  0  0  0  0  0  0  0  0  0  0
   -3.8532    0.0431    1.6319 H   0  0  0  0  0  0  0  0  0  0  0  0
    2.1621    3.7495    0.3969 H   0  0  0  0  0  0  0  0  0  0  0  0
    1.8461    4.2418   -1.2879 H   0  0  0  0  0  0  0  0  0  0  0  0
    2.2255    2.0840   -2.0290 H   0  0  0  0  0  0  0  0  0  0  0  0
   -0.6371    1.8302   -1.7029 H   0  0  0  0  0  0  0  0  0  0  0  0
   -2.9758    2.4381   -0.4363 H   0  0  0  0  0  0  0  0  0  0  0  0
   -2.2651    4.3440    1.4344 H   0  0  0  0  0  0  0  0  0  0  0  0
   -5.8647   -0.8821    1.3932 H   0  0  0  0  0  0  0  0  0  0  0  0
   -5.5926    0.5861    0.3540 H   0  0  0  0  0  0  0  0  0  0  0  0
   -6.8456   -0.5862   -0.0381 H   0  0  0  0  0  0  0  0  0  0  0  0
  1 18  1  0  0  0  0
  1 26  1  0  0  0  0
  2 12  2  0  0  0  0
  3 22  1  0  0  0  0
  3 25  1  0  0  0  0
  4 17  2  0  0  0  0
  5 11  1  0  0  0  0
  5 12  1  0  0  0  0
  5 19  1  0  0  0  0
  6 17  1  0  0  0  0
  6 21  1  0  0  0  0
  6 40  1  0  0  0  0
  7  9  2  0  0  0  0
  7 10  1  0  0  0  0
  7 16  1  0  0  0  0
  8 10  2  0  0  0  0
  8 12  1  0  0  0  0
  8 13  1  0  0  0  0
  9 14  1  0  0  0  0
  9 15  1  0  0  0  0
 10 27  1  0  0  0  0
 11 17  1  0  0  0  0
 11 28  1  0  0  0  0
 11 29  1  0  0  0  0
 13 14  2  0  0  0  0
 13 30  1  0  0  0  0
 14 31  1  0  0  0  0
 15 18  2  0  0  0  0
 15 32  1  0  0  0  0
 16 20  2  0  0  0  0
 16 33  1  0  0  0  0
 18 20  1  0  0  0  0
 19 34  1  0  0  0  0
 19 35  1  0  0  0  0
 19 36  1  0  0  0  0
 20 37  1  0  0  0  0
 21 22  1  0  0  0  0
 21 38  1  0  0  0  0
 21 39  1  0  0  0  0
 22 23  2  0  0  0  0
 23 24  1  0  0  0  0
 23 41  1  0  0  0  0
 24 25  2  0  0  0  0
 24 42  1  0  0  0  0
 25 43  1  0  0  0  0
 26 44  1  0  0  0  0
 26 45  1  0  0  0  0
 26 46  1  0  0  0  0
M  END
> <PUBCHEM_COMPOUND_CID>
17395308

> <PUBCHEM_CONFORMER_RMSD>
1.2

> <PUBCHEM_CONFORMER_DIVERSEORDER>
1
82
45
74
15
30
27
37
64
112
117
79
68
77
83
26
107
73
116
97
103
5
93
75
21
105
84
60
66
95
22
6
43
51
24
101
16
36
80
53
18
40
55
48
110
88
29
47
104
59
56
49
99
41
19
39
72
113
33
86
78
100
92
28
94
42
2
46
10
23
25
70
90
81
50
109
89
35
111
11
58
13
91
115
71
76
98
102
38
96
61
85
32
7
54
3
20
108
106
8
114
65
69
14
63
4
44
34
52
31
12
62
57
9
17
87
67

> <PUBCHEM_MMFF94_PARTIAL_CHARGES>
34
1 -0.36
10 -0.15
11 0.36
12 0.54
13 -0.15
14 -0.15
15 -0.15
16 -0.15
17 0.57
18 0.08
19 0.3
2 -0.57
20 -0.15
21 0.48
22 -0.04
23 -0.15
24 -0.15
25 -0.01
26 0.28
27 0.15
3 -0.28
30 0.15
31 0.15
32 0.15
33 0.15
37 0.15
4 -0.57
40 0.37
41 0.15
42 0.15
43 0.15
5 -0.66
6 -0.73
8 0.09

> <PUBCHEM_EFFECTIVE_ROTOR_COUNT>
8

> <PUBCHEM_PHARMACOPHORE_FEATURES>
8
1 1 acceptor
1 2 acceptor
1 3 acceptor
1 4 acceptor
1 6 donor
5 3 22 23 24 25 rings
6 7 8 9 10 13 14 rings
6 7 9 15 16 18 20 rings

> <PUBCHEM_HEAVY_ATOM_COUNT>
26

> <PUBCHEM_ATOM_DEF_STEREO_COUNT>
0

> <PUBCHEM_ATOM_UDEF_STEREO_COUNT>
0

> <PUBCHEM_BOND_DEF_STEREO_COUNT>
0

> <PUBCHEM_BOND_UDEF_STEREO_COUNT>
0

> <PUBCHEM_ISOTOPIC_ATOM_COUNT>
0

> <PUBCHEM_COMPONENT_COUNT>
1

> <PUBCHEM_CACTVS_TAUTO_COUNT>
2

> <PUBCHEM_CONFORMER_ID>
01096E6C00000001

> <PUBCHEM_MMFF94_ENERGY>
70.3605

> <PUBCHEM_FEATURE_SELFOVERLAP>
40.621

> <PUBCHEM_SHAPE_FINGERPRINT>
10064457 181 17687463877130310128
104564 63 18339633555589661886
10675989 125 18195243322262432245
11370993 70 16678668035744855589
11578080 2 17753643375011650754
12293681 4 18272926124808466602
12422481 6 18123443207329319705
12788726 201 18338498786533584044
13122387 1 17258777551607544605
13140716 1 18196936557188645498
13583140 156 18130500830402056019
138480 1 14808262069437012260
14117953 113 18334010635966686135
19734167 9 17684672182604769608
19930381 70 17979637832012390223
20764821 26 17977648033535272181
20905425 154 18338230582625730300
21133410 90 17459487691563373409
21344244 78 18198648659543395482
22113638 7 18048880697410232885
3014063 31 18411419514236740709
3052486 1 18271534199401804784
4409770 3 16027854557565186431
474 4 18196937660467830186
6287921 2 16892850203701783425
6438718 38 17826533328835833262
6443956 14 18339357462070342797
653340 110 18263370338065751048

> <PUBCHEM_SHAPE_MULTIPOLES>
501.63
7.88
5.32
1.17
3.85
5.93
-0.02
-3.94
-0.81
-0.4
0.46
-0.02
-0.31
-1

> <PUBCHEM_SHAPE_SELFOVERLAP>
1083.011

> <PUBCHEM_SHAPE_VOLUME>
276.8

> <PUBCHEM_COORDINATE_TYPE>
2
5
10

$$$$

