17395828
  -OEChem-06241222523D

 50 52  0     0  0  0  0  0  0999 V2000
    0.8943   -1.4148    0.1627 O   0  0  0  0  0  0  0  0  0  0  0  0
    0.4493    1.9077   -1.7158 O   0  0  0  0  0  0  0  0  0  0  0  0
    5.4082   -2.5963   -0.3293 O   0  0  0  0  0  0  0  0  0  0  0  0
    1.8932    1.3812    0.5295 N   0  0  0  0  0  0  0  0  0  0  0  0
    4.8954   -0.3594    0.0544 N   0  0  0  0  0  0  0  0  0  0  0  0
    3.1481   -2.0307   -0.0873 N   0  0  0  0  0  0  0  0  0  0  0  0
   -1.5949    2.0361   -0.6282 N   0  0  0  0  0  0  0  0  0  0  0  0
    4.0561    1.9172    0.4664 N   0  0  0  0  0  0  0  0  0  0  0  0
    2.5688    0.2167    0.3015 C   0  0  0  0  0  0  0  0  0  0  0  0
    3.8894    0.5729    0.2678 C   0  0  0  0  0  0  0  0  0  0  0  0
    0.4663    1.5592    0.6550 C   0  0  0  0  0  0  0  0  0  0  0  0
    2.0845   -1.1142    0.1273 C   0  0  0  0  0  0  0  0  0  0  0  0
   -0.2092    1.8481   -0.6739 C   0  0  0  0  0  0  0  0  0  0  0  0
    2.8316    2.3766    0.6214 C   0  0  0  0  0  0  0  0  0  0  0  0
   -2.4152    1.9712    0.5791 C   0  0  0  0  0  0  0  0  0  0  0  0
    4.5557   -1.7223   -0.1353 C   0  0  0  0  0  0  0  0  0  0  0  0
   -3.4333    0.8699    0.5080 C   0  0  0  0  0  0  0  0  0  0  0  0
    6.2911    0.0601    0.0258 C   0  0  0  0  0  0  0  0  0  0  0  0
   -2.3231    2.3181   -1.8589 C   0  0  0  0  0  0  0  0  0  0  0  0
    2.7780   -3.4292   -0.2791 C   0  0  0  0  0  0  0  0  0  0  0  0
   -3.0629   -0.3942    0.0493 C   0  0  0  0  0  0  0  0  0  0  0  0
   -4.7499    1.1114    0.9006 C   0  0  0  0  0  0  0  0  0  0  0  0
   -5.3255   -1.1757    0.3761 C   0  0  0  0  0  0  0  0  0  0  0  0
   -4.0088   -1.4169   -0.0166 C   0  0  0  0  0  0  0  0  0  0  0  0
   -5.6960    0.0884    0.8347 C   0  0  0  0  0  0  0  0  0  0  0  0
   -6.3370   -2.2695    0.3058 C   0  0  0  0  0  0  0  0  0  0  0  0
   -7.0542   -2.3114   -1.0409 C   0  0  0  0  0  0  0  0  0  0  0  0
    0.3106    2.4108    1.3273 H   0  0  0  0  0  0  0  0  0  0  0  0
    0.0438    0.6671    1.1230 H   0  0  0  0  0  0  0  0  0  0  0  0
   -1.8190    1.8301    1.4828 H   0  0  0  0  0  0  0  0  0  0  0  0
   -2.9045    2.9482    0.6782 H   0  0  0  0  0  0  0  0  0  0  0  0
    2.5658    3.4098    0.7993 H   0  0  0  0  0  0  0  0  0  0  0  0
    6.9628   -0.7836   -0.1511 H   0  0  0  0  0  0  0  0  0  0  0  0
    6.4252    0.7922   -0.7765 H   0  0  0  0  0  0  0  0  0  0  0  0
    6.5441    0.5171    0.9874 H   0  0  0  0  0  0  0  0  0  0  0  0
   -2.9246    1.4512   -2.1443 H   0  0  0  0  0  0  0  0  0  0  0  0
   -1.6402    2.5427   -2.6829 H   0  0  0  0  0  0  0  0  0  0  0  0
   -2.9729    3.1848   -1.7044 H   0  0  0  0  0  0  0  0  0  0  0  0
    3.1525   -3.7589   -1.2534 H   0  0  0  0  0  0  0  0  0  0  0  0
    1.6990   -3.5927   -0.2338 H   0  0  0  0  0  0  0  0  0  0  0  0
    3.2670   -4.0288    0.4952 H   0  0  0  0  0  0  0  0  0  0  0  0
   -2.0409   -0.6082   -0.2511 H   0  0  0  0  0  0  0  0  0  0  0  0
   -5.0520    2.0912    1.2607 H   0  0  0  0  0  0  0  0  0  0  0  0
   -3.7075   -2.3977   -0.3749 H   0  0  0  0  0  0  0  0  0  0  0  0
   -6.7189    0.2895    1.1421 H   0  0  0  0  0  0  0  0  0  0  0  0
   -7.0758   -2.1483    1.1079 H   0  0  0  0  0  0  0  0  0  0  0  0
   -5.8551   -3.2376    0.4917 H   0  0  0  0  0  0  0  0  0  0  0  0
   -7.5842   -1.3731   -1.2368 H   0  0  0  0  0  0  0  0  0  0  0  0
   -7.7864   -3.1249   -1.0538 H   0  0  0  0  0  0  0  0  0  0  0  0
   -6.3473   -2.4766   -1.8611 H   0  0  0  0  0  0  0  0  0  0  0  0
  1 12  2  0  0  0  0
  2 13  2  0  0  0  0
  3 16  2  0  0  0  0
  4  9  1  0  0  0  0
  4 11  1  0  0  0  0
  4 14  1  0  0  0  0
  5 10  1  0  0  0  0
  5 16  1  0  0  0  0
  5 18  1  0  0  0  0
  6 12  1  0  0  0  0
  6 16  1  0  0  0  0
  6 20  1  0  0  0  0
  7 13  1  0  0  0  0
  7 15  1  0  0  0  0
  7 19  1  0  0  0  0
  8 10  1  0  0  0  0
  8 14  2  0  0  0  0
  9 10  2  0  0  0  0
  9 12  1  0  0  0  0
 11 13  1  0  0  0  0
 11 28  1  0  0  0  0
 11 29  1  0  0  0  0
 14 32  1  0  0  0  0
 15 17  1  0  0  0  0
 15 30  1  0  0  0  0
 15 31  1  0  0  0  0
 17 21  2  0  0  0  0
 17 22  1  0  0  0  0
 18 33  1  0  0  0  0
 18 34  1  0  0  0  0
 18 35  1  0  0  0  0
 19 36  1  0  0  0  0
 19 37  1  0  0  0  0
 19 38  1  0  0  0  0
 20 39  1  0  0  0  0
 20 40  1  0  0  0  0
 20 41  1  0  0  0  0
 21 24  1  0  0  0  0
 21 42  1  0  0  0  0
 22 25  2  0  0  0  0
 22 43  1  0  0  0  0
 23 24  2  0  0  0  0
 23 25  1  0  0  0  0
 23 26  1  0  0  0  0
 24 44  1  0  0  0  0
 25 45  1  0  0  0  0
 26 27  1  0  0  0  0
 26 46  1  0  0  0  0
 26 47  1  0  0  0  0
 27 48  1  0  0  0  0
 27 49  1  0  0  0  0
 27 50  1  0  0  0  0
M  END
> <PUBCHEM_COMPOUND_CID>
17395828

> <PUBCHEM_CONFORMER_RMSD>
1

> <PUBCHEM_CONFORMER_DIVERSEORDER>
1
140
9
64
22
126
82
70
111
12
94
121
81
11
58
139
99
120
96
75
97
54
35
95
10
57
91
68
130
135
122
50
74
60
42
116
65
71
33
113
8
98
142
23
125
63
16
20
25
144
28
3
61
67
51
59
119
93
13
34
138
48
133
84
43
131
129
44
86
105
132
45
103
127
115
100
26
128
87
24
137
2
52
136
114
141
89
55
72
5
90
7
101
117
88
47
53
56
66
39
83
27
123
77
41
15
80
69
79
30
46
124
29
112
102
4
32
85
19
107
14
106
18
36
78
6
109
134
73
92
118
31
143
76
21
62
110
108
40
17
38
49
37
104

> <PUBCHEM_MMFF94_PARTIAL_CHARGES>
31
1 -0.57
10 0.29
11 0.32
12 0.71
13 0.57
14 0.04
15 0.44
16 0.69
17 -0.14
18 0.3
19 0.3
2 -0.57
20 0.3
21 -0.15
22 -0.15
23 -0.14
24 -0.15
25 -0.15
26 0.14
3 -0.57
32 0.15
4 0.05
42 0.15
43 0.15
44 0.15
45 0.15
5 -0.42
6 -0.42
7 -0.66
8 -0.57
9 -0.24

> <PUBCHEM_EFFECTIVE_ROTOR_COUNT>
6

> <PUBCHEM_PHARMACOPHORE_FEATURES>
8
1 1 acceptor
1 2 acceptor
1 27 hydrophobe
1 3 acceptor
3 4 8 14 cation
5 4 8 9 10 14 rings
6 17 21 22 23 24 25 rings
6 5 6 9 10 12 16 rings

> <PUBCHEM_HEAVY_ATOM_COUNT>
27

> <PUBCHEM_ATOM_DEF_STEREO_COUNT>
0

> <PUBCHEM_ATOM_UDEF_STEREO_COUNT>
0

> <PUBCHEM_BOND_DEF_STEREO_COUNT>
0

> <PUBCHEM_BOND_UDEF_STEREO_COUNT>
0

> <PUBCHEM_ISOTOPIC_ATOM_COUNT>
0

> <PUBCHEM_COMPONENT_COUNT>
1

> <PUBCHEM_CACTVS_TAUTO_COUNT>
1

> <PUBCHEM_CONFORMER_ID>
0109707400000001

> <PUBCHEM_MMFF94_ENERGY>
56.4941

> <PUBCHEM_FEATURE_SELFOVERLAP>
40.709

> <PUBCHEM_SHAPE_FINGERPRINT>
11552529 35 18041005020611952549
11963148 33 18341620351743346218
12107183 9 17972868431289628521
12596602 18 17313098618993459897
12623949 98 18260819414953932382
13103583 49 17895461631425113233
13402501 40 18412822503679084058
13533116 47 18262237703839643865
13782708 43 18201158853537621162
13989917 61 18124591977874138027
14341114 176 18261668276558744400
1454969 45 18200306620409965556
14950920 106 17675923197063510337
15064986 96 17096638993157337959
15196674 1 18409165515520755553
15361156 5 18058713810586909237
15880784 105 18334007290144938441
1813 80 17632857508241422557
20028762 73 18333452044978470918
21033650 10 16702031928270871901
21197605 99 18262798450079826850
21673915 165 18410011005513184041
221490 88 18338519758974635668
22393880 68 18059019521784041736
23522609 53 18123153970809153784
23559900 14 18409737274394890825
25222932 49 18335985345939214342
350125 39 18409728457037437192
3737641 26 18336543944774058430
4073 2 18270955757074046963
437795 51 17676774176477940784
444735 86 18130233738896059043
46194498 28 17488468468971831221
463206 1 18192713337479827363
5104073 3 18114183068084869288
6431902 208 18410855430834004899
7970288 3 17832422373545352442
8863177 126 18410011074169344034

> <PUBCHEM_SHAPE_MULTIPOLES>
513.13
16.14
3.5
1.04
9.79
1.28
-0.4
11.09
0.85
-0.72
-0.68
0.88
-0.59
0.25

> <PUBCHEM_SHAPE_SELFOVERLAP>
1095.055

> <PUBCHEM_SHAPE_VOLUME>
286.8

> <PUBCHEM_COORDINATE_TYPE>
2
5
10

$$$$

