11314
  -OEChem-06261205312D

 70 75  0     0  0  0  0  0  0999 V2000
    2.8660    1.6204    0.0000 S   0  0  0  0  0  0  0  0  0  0  0  0
   15.8564   -3.8796    0.0000 S   0  0  0  0  0  0  0  0  0  0  0  0
    2.0000    1.1204    0.0000 O   0  0  0  0  0  0  0  0  0  0  0  0
   15.8564   -4.8796    0.0000 O   0  0  0  0  0  0  0  0  0  0  0  0
   14.8564   -3.8796    0.0000 O   0  0  0  0  0  0  0  0  0  0  0  0
   16.8564   -3.8796    0.0000 O   0  0  0  0  0  0  0  0  0  0  0  0
    3.3660    0.7543    0.0000 O   0  0  0  0  0  0  0  0  0  0  0  0
    2.3660    2.4864    0.0000 O   0  0  0  0  0  0  0  0  0  0  0  0
    6.3301    3.6204    0.0000 N   0  0  0  0  0  0  0  0  0  0  0  0
   15.8564    0.1204    0.0000 N   0  0  0  0  0  0  0  0  0  0  0  0
    6.3301    1.6204    0.0000 N   0  0  0  0  0  0  0  0  0  0  0  0
   14.1244   -0.8796    0.0000 N   0  0  0  0  0  0  0  0  0  0  0  0
    7.1962    2.1204    0.0000 N   0  0  0  0  0  0  0  0  0  0  0  0
   13.2583   -1.3796    0.0000 N   0  0  0  0  0  0  0  0  0  0  0  0
   16.7224   -2.3796    0.0000 C   0  0  0  0  0  0  0  0  0  0  0  0
    3.7320    3.1204    0.0000 C   0  0  0  0  0  0  0  0  0  0  0  0
    4.5981    3.6204    0.0000 C   0  0  0  0  0  0  0  0  0  0  0  0
   16.7224   -1.3796    0.0000 C   0  0  0  0  0  0  0  0  0  0  0  0
   15.8564   -2.8796    0.0000 C   0  0  0  0  0  0  0  0  0  0  0  0
    3.7320    2.1204    0.0000 C   0  0  0  0  0  0  0  0  0  0  0  0
   15.8564   -0.8796    0.0000 C   0  0  0  0  0  0  0  0  0  0  0  0
    5.4641    3.1204    0.0000 C   0  0  0  0  0  0  0  0  0  0  0  0
    5.4641    2.1204    0.0000 C   0  0  0  0  0  0  0  0  0  0  0  0
   14.9904   -1.3796    0.0000 C   0  0  0  0  0  0  0  0  0  0  0  0
    4.5981    1.6204    0.0000 C   0  0  0  0  0  0  0  0  0  0  0  0
   14.9904   -2.3796    0.0000 C   0  0  0  0  0  0  0  0  0  0  0  0
    2.8220    3.6272    0.0000 C   0  0  0  0  0  0  0  0  0  0  0  0
   17.6164   -2.9143    0.0000 C   0  0  0  0  0  0  0  0  0  0  0  0
    4.6141    4.6619    0.0000 C   0  0  0  0  0  0  0  0  0  0  0  0
   17.6164   -0.8450    0.0000 C   0  0  0  0  0  0  0  0  0  0  0  0
    2.8140    4.6688    0.0000 C   0  0  0  0  0  0  0  0  0  0  0  0
   18.5224   -2.4005    0.0000 C   0  0  0  0  0  0  0  0  0  0  0  0
    3.7161    5.1896    0.0000 C   0  0  0  0  0  0  0  0  0  0  0  0
   18.5224   -1.3588    0.0000 C   0  0  0  0  0  0  0  0  0  0  0  0
   10.6603    0.1204    0.0000 C   0  0  0  0  0  0  0  0  0  0  0  0
    9.7942    0.6204    0.0000 C   0  0  0  0  0  0  0  0  0  0  0  0
   12.3923   -0.8796    0.0000 C   0  0  0  0  0  0  0  0  0  0  0  0
    8.0622    1.6204    0.0000 C   0  0  0  0  0  0  0  0  0  0  0  0
    8.9282    0.1204    0.0000 C   0  0  0  0  0  0  0  0  0  0  0  0
   11.5263    0.6204    0.0000 C   0  0  0  0  0  0  0  0  0  0  0  0
    9.7942    1.6204    0.0000 C   0  0  0  0  0  0  0  0  0  0  0  0
   10.6603   -0.8796    0.0000 C   0  0  0  0  0  0  0  0  0  0  0  0
    8.0622    0.6204    0.0000 C   0  0  0  0  0  0  0  0  0  0  0  0
   12.3923    0.1204    0.0000 C   0  0  0  0  0  0  0  0  0  0  0  0
    8.9282    2.1204    0.0000 C   0  0  0  0  0  0  0  0  0  0  0  0
   11.5263   -1.3796    0.0000 C   0  0  0  0  0  0  0  0  0  0  0  0
    4.5981    1.0004    0.0000 H   0  0  0  0  0  0  0  0  0  0  0  0
   14.4534   -2.6896    0.0000 H   0  0  0  0  0  0  0  0  0  0  0  0
    2.2887    3.3110    0.0000 H   0  0  0  0  0  0  0  0  0  0  0  0
   17.6092   -3.5342    0.0000 H   0  0  0  0  0  0  0  0  0  0  0  0
    5.1546    4.9656    0.0000 H   0  0  0  0  0  0  0  0  0  0  0  0
   17.6092   -0.2250    0.0000 H   0  0  0  0  0  0  0  0  0  0  0  0
    2.2759    4.9767    0.0000 H   0  0  0  0  0  0  0  0  0  0  0  0
   19.0582   -2.7125    0.0000 H   0  0  0  0  0  0  0  0  0  0  0  0
    3.7185    5.8096    0.0000 H   0  0  0  0  0  0  0  0  0  0  0  0
   19.0582   -1.0468    0.0000 H   0  0  0  0  0  0  0  0  0  0  0  0
    6.3301    4.2404    0.0000 H   0  0  0  0  0  0  0  0  0  0  0  0
    6.8671    3.3104    0.0000 H   0  0  0  0  0  0  0  0  0  0  0  0
   15.3195    0.4304    0.0000 H   0  0  0  0  0  0  0  0  0  0  0  0
   16.3933    0.4304    0.0000 H   0  0  0  0  0  0  0  0  0  0  0  0
    8.9282   -0.4996    0.0000 H   0  0  0  0  0  0  0  0  0  0  0  0
   11.5263    1.2404    0.0000 H   0  0  0  0  0  0  0  0  0  0  0  0
   10.3312    1.9304    0.0000 H   0  0  0  0  0  0  0  0  0  0  0  0
   10.1233   -1.1896    0.0000 H   0  0  0  0  0  0  0  0  0  0  0  0
    7.5252    0.3104    0.0000 H   0  0  0  0  0  0  0  0  0  0  0  0
   12.9292    0.4304    0.0000 H   0  0  0  0  0  0  0  0  0  0  0  0
    8.9282    2.7404    0.0000 H   0  0  0  0  0  0  0  0  0  0  0  0
   11.5263   -1.9996    0.0000 H   0  0  0  0  0  0  0  0  0  0  0  0
    2.0000    0.5004    0.0000 H   0  0  0  0  0  0  0  0  0  0  0  0
   15.3195   -5.1896    0.0000 H   0  0  0  0  0  0  0  0  0  0  0  0
  1  3  1  0  0  0  0
  1  7  2  0  0  0  0
  1  8  2  0  0  0  0
  1 20  1  0  0  0  0
  2  4  1  0  0  0  0
  2  5  2  0  0  0  0
  2  6  2  0  0  0  0
  2 19  1  0  0  0  0
  3 69  1  0  0  0  0
  4 70  1  0  0  0  0
  9 22  1  0  0  0  0
  9 57  1  0  0  0  0
  9 58  1  0  0  0  0
 10 21  1  0  0  0  0
 10 59  1  0  0  0  0
 10 60  1  0  0  0  0
 11 13  2  0  0  0  0
 11 23  1  0  0  0  0
 12 14  2  0  0  0  0
 12 24  1  0  0  0  0
 13 38  1  0  0  0  0
 14 37  1  0  0  0  0
 15 18  1  0  0  0  0
 15 19  1  0  0  0  0
 15 28  2  0  0  0  0
 16 17  1  0  0  0  0
 16 20  1  0  0  0  0
 16 27  2  0  0  0  0
 17 22  1  0  0  0  0
 17 29  2  0  0  0  0
 18 21  1  0  0  0  0
 18 30  2  0  0  0  0
 19 26  2  0  0  0  0
 20 25  2  0  0  0  0
 21 24  2  0  0  0  0
 22 23  2  0  0  0  0
 23 25  1  0  0  0  0
 24 26  1  0  0  0  0
 25 47  1  0  0  0  0
 26 48  1  0  0  0  0
 27 31  1  0  0  0  0
 27 49  1  0  0  0  0
 28 32  1  0  0  0  0
 28 50  1  0  0  0  0
 29 33  1  0  0  0  0
 29 51  1  0  0  0  0
 30 34  1  0  0  0  0
 30 52  1  0  0  0  0
 31 33  2  0  0  0  0
 31 53  1  0  0  0  0
 32 34  2  0  0  0  0
 32 54  1  0  0  0  0
 33 55  1  0  0  0  0
 34 56  1  0  0  0  0
 35 36  1  0  0  0  0
 35 40  2  0  0  0  0
 35 42  1  0  0  0  0
 36 39  2  0  0  0  0
 36 41  1  0  0  0  0
 37 44  2  0  0  0  0
 37 46  1  0  0  0  0
 38 43  2  0  0  0  0
 38 45  1  0  0  0  0
 39 43  1  0  0  0  0
 39 61  1  0  0  0  0
 40 44  1  0  0  0  0
 40 62  1  0  0  0  0
 41 45  2  0  0  0  0
 41 63  1  0  0  0  0
 42 46  2  0  0  0  0
 42 64  1  0  0  0  0
 43 65  1  0  0  0  0
 44 66  1  0  0  0  0
 45 67  1  0  0  0  0
 46 68  1  0  0  0  0
M  END
> <PUBCHEM_COMPOUND_CID>
11314

> <PUBCHEM_COMPOUND_CANONICALIZED>
1

> <PUBCHEM_CACTVS_COMPLEXITY>
1200

> <PUBCHEM_CACTVS_HBOND_ACCEPTOR>
12

> <PUBCHEM_CACTVS_HBOND_DONOR>
4

> <PUBCHEM_CACTVS_ROTATABLE_BOND>
7

> <PUBCHEM_CACTVS_SUBSKEYS>
AAADceB/uABgAAAAAAAAAAAAAAAAAAAAAAAwYMGDAAAAAADBVAAAHAQYCAAADAiBWAAwwcBAAIKCAiRCQHDCAEAgAgAIiBgAdIgIYCKAkZGAIARggAAIyAcQgMAOiAQAwCAWACAQCAGAQCwAQAAAAAAAAA==

> <PUBCHEM_IUPAC_OPENEYE_NAME>
4-amino-3-[4-[4-[(1-amino-4-sulfo-2-naphthyl)azo]phenyl]phenyl]azo-naphthalene-1-sulfonic acid

> <PUBCHEM_IUPAC_CAS_NAME>
4-amino-3-[4-[4-[(1-amino-4-sulfo-2-naphthalenyl)azo]phenyl]phenyl]azo-1-naphthalenesulfonic acid

> <PUBCHEM_IUPAC_NAME>
4-amino-3-[[4-[4-[(1-amino-4-sulfonaphthalen-2-yl)diazenyl]phenyl]phenyl]diazenyl]naphthalene-1-sulfonic acid

> <PUBCHEM_IUPAC_SYSTEMATIC_NAME>
4-azanyl-3-[[4-[4-[(1-azanyl-4-sulfo-naphthalen-2-yl)diazenyl]phenyl]phenyl]diazenyl]naphthalene-1-sulfonic acid

> <PUBCHEM_IUPAC_TRADITIONAL_NAME>
4-amino-3-[4-[4-[(1-amino-4-sulfo-2-naphthyl)azo]phenyl]phenyl]azo-naphthalene-1-sulfonic acid

> <PUBCHEM_IUPAC_INCHI>
InChI=1S/C32H24N6O6S2/c33-31-25-7-3-1-5-23(25)29(45(39,40)41)17-27(31)37-35-21-13-9-19(10-14-21)20-11-15-22(16-12-20)36-38-28-18-30(46(42,43)44)24-6-2-4-8-26(24)32(28)34/h1-18H,33-34H2,(H,39,40,41)(H,42,43,44)

> <PUBCHEM_IUPAC_INCHIKEY>
HFHIDKQMGIGARX-UHFFFAOYSA-N

> <PUBCHEM_XLOGP3_AA>
5.7

> <PUBCHEM_EXACT_MASS>
652.119875

> <PUBCHEM_MOLECULAR_FORMULA>
C32H24N6O6S2

> <PUBCHEM_MOLECULAR_WEIGHT>
652.69956

> <PUBCHEM_OPENEYE_CAN_SMILES>
C1=CC=C2C(=C1)C(=CC(=C2N)N=NC3=CC=C(C=C3)C4=CC=C(C=C4)N=NC5=C(C6=CC=CC=C6C(=C5)S(=O)(=O)O)N)S(=O)(=O)O

> <PUBCHEM_OPENEYE_ISO_SMILES>
C1=CC=C2C(=C1)C(=CC(=C2N)N=NC3=CC=C(C=C3)C4=CC=C(C=C4)N=NC5=C(C6=CC=CC=C6C(=C5)S(=O)(=O)O)N)S(=O)(=O)O

> <PUBCHEM_CACTVS_TPSA>
227

> <PUBCHEM_MONOISOTOPIC_WEIGHT>
652.119875

> <PUBCHEM_TOTAL_CHARGE>
0

> <PUBCHEM_HEAVY_ATOM_COUNT>
46

> <PUBCHEM_ATOM_DEF_STEREO_COUNT>
0

> <PUBCHEM_ATOM_UDEF_STEREO_COUNT>
0

> <PUBCHEM_BOND_DEF_STEREO_COUNT>
0

> <PUBCHEM_BOND_UDEF_STEREO_COUNT>
0

> <PUBCHEM_ISOTOPIC_ATOM_COUNT>
0

> <PUBCHEM_COMPONENT_COUNT>
1

> <PUBCHEM_CACTVS_TAUTO_COUNT>
3

> <PUBCHEM_COORDINATE_TYPE>
1
5
255

> <PUBCHEM_BONDANNOTATIONS>
15  18  8
15  19  8
15  28  8
16  17  8
16  20  8
16  27  8
17  22  8
17  29  8
18  21  8
18  30  8
19  26  8
20  25  8
21  24  8
22  23  8
23  25  8
24  26  8
27  31  8
28  32  8
29  33  8
30  34  8
31  33  8
32  34  8
35  40  8
35  42  8
36  39  8
36  41  8
37  44  8
37  46  8
38  43  8
38  45  8
39  43  8
40  44  8
41  45  8
42  46  8

$$$$

