17396155
  -OEChem-06241222543D

 47 50  0     0  0  0  0  0  0999 V2000
   -7.8650   -1.7425   -1.8122 Br  0  0  0  0  0  0  0  0  0  0  0  0
   -3.6230   -1.9459    1.7161 Cl  0  0  0  0  0  0  0  0  0  0  0  0
   -2.9653    1.2012    1.2143 S   0  0  0  0  0  0  0  0  0  0  0  0
   -3.1080    2.5853    0.8132 O   0  0  0  0  0  0  0  0  0  0  0  0
   -3.0757    0.7879    2.5972 O   0  0  0  0  0  0  0  0  0  0  0  0
    1.0866    0.3398   -0.6618 N   0  0  0  0  0  0  0  0  0  0  0  0
   -1.5030    0.5939    0.5620 N   0  0  0  0  0  0  0  0  0  0  0  0
    4.4544   -1.8360   -0.1107 N   0  0  0  0  0  0  0  0  0  0  0  0
   -0.1337   -0.0404   -1.3874 C   0  0  0  0  0  0  0  0  0  0  0  0
    0.9099    0.1402    0.7835 C   0  0  0  0  0  0  0  0  0  0  0  0
   -1.3301    0.7795   -0.9068 C   0  0  0  0  0  0  0  0  0  0  0  0
   -0.2660    0.9638    1.3066 C   0  0  0  0  0  0  0  0  0  0  0  0
    2.2341   -0.4241   -1.1500 C   0  0  0  0  0  0  0  0  0  0  0  0
    3.5370    0.2386   -0.8074 C   0  0  0  0  0  0  0  0  0  0  0  0
   -4.3111    0.3480    0.4007 C   0  0  0  0  0  0  0  0  0  0  0  0
    4.5947   -0.5100   -0.2987 C   0  0  0  0  0  0  0  0  0  0  0  0
    3.6478    1.6156   -1.0155 C   0  0  0  0  0  0  0  0  0  0  0  0
    5.7969    0.1618    0.0067 C   0  0  0  0  0  0  0  0  0  0  0  0
   -4.5766   -1.0023    0.6283 C   0  0  0  0  0  0  0  0  0  0  0  0
   -5.1051    1.0752   -0.4861 C   0  0  0  0  0  0  0  0  0  0  0  0
    4.8349    2.2710   -0.7127 C   0  0  0  0  0  0  0  0  0  0  0  0
    5.9085    1.5470   -0.2024 C   0  0  0  0  0  0  0  0  0  0  0  0
   -5.6362   -1.6255   -0.0308 C   0  0  0  0  0  0  0  0  0  0  0  0
   -6.1648    0.4519   -1.1453 C   0  0  0  0  0  0  0  0  0  0  0  0
    6.8621   -0.5914    0.5183 C   0  0  0  0  0  0  0  0  0  0  0  0
   -6.4302   -0.8984   -0.9177 C   0  0  0  0  0  0  0  0  0  0  0  0
    5.5064   -2.5265    0.3854 C   0  0  0  0  0  0  0  0  0  0  0  0
    6.7204   -1.9578    0.7131 C   0  0  0  0  0  0  0  0  0  0  0  0
   -0.3426   -1.1109   -1.2583 H   0  0  0  0  0  0  0  0  0  0  0  0
   -0.0044    0.1436   -2.4608 H   0  0  0  0  0  0  0  0  0  0  0  0
    1.8067    0.4522    1.3313 H   0  0  0  0  0  0  0  0  0  0  0  0
    0.7408   -0.9213    1.0106 H   0  0  0  0  0  0  0  0  0  0  0  0
   -1.1830    1.8424   -1.1328 H   0  0  0  0  0  0  0  0  0  0  0  0
   -2.2206    0.4331   -1.4396 H   0  0  0  0  0  0  0  0  0  0  0  0
   -0.3985    0.7492    2.3723 H   0  0  0  0  0  0  0  0  0  0  0  0
   -0.0707    2.0367    1.1907 H   0  0  0  0  0  0  0  0  0  0  0  0
    2.2108   -0.4770   -2.2477 H   0  0  0  0  0  0  0  0  0  0  0  0
    2.1741   -1.4624   -0.8019 H   0  0  0  0  0  0  0  0  0  0  0  0
    2.8256    2.1948   -1.4275 H   0  0  0  0  0  0  0  0  0  0  0  0
   -4.9275    2.1258   -0.6936 H   0  0  0  0  0  0  0  0  0  0  0  0
    4.9264    3.3404   -0.8762 H   0  0  0  0  0  0  0  0  0  0  0  0
    6.8337    2.0695    0.0304 H   0  0  0  0  0  0  0  0  0  0  0  0
   -5.8435   -2.6787    0.1462 H   0  0  0  0  0  0  0  0  0  0  0  0
   -6.7732    1.0320   -1.8344 H   0  0  0  0  0  0  0  0  0  0  0  0
    7.8084   -0.1171    0.7681 H   0  0  0  0  0  0  0  0  0  0  0  0
    5.3374   -3.5903    0.5163 H   0  0  0  0  0  0  0  0  0  0  0  0
    7.5336   -2.5553    1.1079 H   0  0  0  0  0  0  0  0  0  0  0  0
  1 26  1  0  0  0  0
  2 19  1  0  0  0  0
  3  4  2  0  0  0  0
  3  5  2  0  0  0  0
  3  7  1  0  0  0  0
  3 15  1  0  0  0  0
  6  9  1  0  0  0  0
  6 10  1  0  0  0  0
  6 13  1  0  0  0  0
  7 11  1  0  0  0  0
  7 12  1  0  0  0  0
  8 16  1  0  0  0  0
  8 27  2  0  0  0  0
  9 11  1  0  0  0  0
  9 29  1  0  0  0  0
  9 30  1  0  0  0  0
 10 12  1  0  0  0  0
 10 31  1  0  0  0  0
 10 32  1  0  0  0  0
 11 33  1  0  0  0  0
 11 34  1  0  0  0  0
 12 35  1  0  0  0  0
 12 36  1  0  0  0  0
 13 14  1  0  0  0  0
 13 37  1  0  0  0  0
 13 38  1  0  0  0  0
 14 16  1  0  0  0  0
 14 17  2  0  0  0  0
 15 19  2  0  0  0  0
 15 20  1  0  0  0  0
 16 18  2  0  0  0  0
 17 21  1  0  0  0  0
 17 39  1  0  0  0  0
 18 22  1  0  0  0  0
 18 25  1  0  0  0  0
 19 23  1  0  0  0  0
 20 24  2  0  0  0  0
 20 40  1  0  0  0  0
 21 22  2  0  0  0  0
 21 41  1  0  0  0  0
 22 42  1  0  0  0  0
 23 26  2  0  0  0  0
 23 43  1  0  0  0  0
 24 26  1  0  0  0  0
 24 44  1  0  0  0  0
 25 28  2  0  0  0  0
 25 45  1  0  0  0  0
 27 28  1  0  0  0  0
 27 46  1  0  0  0  0
 28 47  1  0  0  0  0
M  END
> <PUBCHEM_COMPOUND_CID>
17396155

> <PUBCHEM_CONFORMER_RMSD>
0.8

> <PUBCHEM_CONFORMER_DIVERSEORDER>
1
273
332
35
257
221
340
234
62
250
29
270
177
143
294
333
285
103
193
233
289
184
68
272
61
202
136
94
155
216
206
215
109
336
130
174
317
302
279
208
231
322
271
256
73
191
269
93
156
245
5
98
251
331
147
268
47
149
262
34
205
162
180
128
114
346
67
195
300
344
305
258
247
298
290
325
87
323
56
81
54
227
110
113
301
199
197
196
220
260
92
126
53
178
188
276
312
106
212
124
214
288
238
150
314
160
133
253
138
69
82
210
170
252
321
27
187
330
283
235
22
213
337
328
281
232
165
219
222
88
183
60
145
168
308
315
293
242
329
2
339
137
24
345
297
158
111
190
26
89
267
58
75
164
284
194
74
99
287
303
334
154
203
295
141
198
249
327
83
296
59
186
123
48
121
243
90
41
72
125
225
80
324
38
228
278
189
342
148
311
313
237
200
134
229
175
291
179
316
65
142
192
320
119
309
248
226
57
39
105
6
207
286
263
146
16
173
42
19
218
299
70
182
43
49
55
241
335
86
85
277
132
32
118
326
51
161
71
246
280
50
97
224
259
20
12
76
264
275
108
14
266
152
40
37
15
167
101
33
96
169
21
343
166
176
135
159
3
95
107
209
127
117
274
63
120
163
46
185
115
230
172
66
45
131
338
112
261
79
153
223
36
171
318
304
181
104
240
18
102
77
151
52
204
28
30
265
306
100
25
78
201
292
64
140
217
31
254
211
122
144
44
13
244
9
23
307
282
139
10
11
84
157
319
91
116
310
239
4
255
341
129
8
236
7
17

> <PUBCHEM_MMFF94_PARTIAL_CHARGES>
36
1 -0.11
10 0.27
11 0.36
12 0.36
13 0.41
14 -0.14
15 -0.01
16 0.31
17 -0.15
19 0.18
2 -0.18
20 -0.15
21 -0.15
22 -0.15
23 -0.15
24 -0.15
25 -0.15
26 0.11
27 0.16
28 -0.15
3 1.45
39 0.15
4 -0.65
40 0.15
41 0.15
42 0.15
43 0.15
44 0.15
45 0.15
46 0.15
47 0.15
5 -0.65
6 -0.81
7 -0.85
8 -0.62
9 0.27

> <PUBCHEM_EFFECTIVE_ROTOR_COUNT>
5.2

> <PUBCHEM_PHARMACOPHORE_FEATURES>
9
1 1 hydrophobe
1 4 acceptor
1 5 acceptor
1 6 cation
1 8 acceptor
6 14 16 17 18 21 22 rings
6 15 19 20 23 24 26 rings
6 6 7 9 10 11 12 rings
6 8 16 18 25 27 28 rings

> <PUBCHEM_HEAVY_ATOM_COUNT>
28

> <PUBCHEM_ATOM_DEF_STEREO_COUNT>
0

> <PUBCHEM_ATOM_UDEF_STEREO_COUNT>
0

> <PUBCHEM_BOND_DEF_STEREO_COUNT>
0

> <PUBCHEM_BOND_UDEF_STEREO_COUNT>
0

> <PUBCHEM_ISOTOPIC_ATOM_COUNT>
0

> <PUBCHEM_COMPONENT_COUNT>
1

> <PUBCHEM_CACTVS_TAUTO_COUNT>
1

> <PUBCHEM_CONFORMER_ID>
010971BB00000001

> <PUBCHEM_MMFF94_ENERGY>
68.8969

> <PUBCHEM_FEATURE_SELFOVERLAP>
45.717

> <PUBCHEM_SHAPE_FINGERPRINT>
10 15 16877951520797920602
10595046 47 18409163312076412592
10815517 723 16128095675675344885
10835480 77 18059574620658825252
11315181 36 18334856117548410649
11646440 116 14779551188542899586
11719270 70 18186803595155058742
11724838 91 18259988163500444678
11796584 16 15195277600151782016
12236239 1 18335138713121253884
12403259 118 17895468236842298920
12596602 18 18409167718606967250
13533116 47 18413387644809221872
13782708 43 18260265261035146502
13914758 101 18059859506098025141
14068700 675 17822011974373265305
14251758 9 15841548574315722960
14849402 71 5689013392970176642
15183329 4 12751520673605913903
15188451 53 18409171030090172658
1577012 14 18334284392724044240
17857418 61 18272085024203691474
19377110 9 17530683229724338790
19958102 18 17917996083497422919
20028762 73 18336547213677363054
21223535 225 16916233307489667901
21344244 78 18261685852614927144
22061861 79 17775565347097689214
22149856 69 16515949433350185887
2215653 11 16917064486529356192
23081809 10 18260258659628565449
23198884 109 17989210344027390069
23522609 53 17825076317153397433
23559900 14 18270121206574733297
23569917 315 17894906356694886134
23569943 247 16915673681265901610
249057 25 18409720777319978988
2747138 104 15140956215212100159
2838139 119 14045750283897853543
329604 57 18113614581981997225
3383291 50 15575001611905965623
3633792 109 18131078160158412039
4015057 19 18271517615969151081
4073 2 17632007551456437474
439807 62 18335422331867010935
44880568 143 16988570100023875461
474113 269 17273997885719624298
4938544 92 14851870492545310259
504579 68 18270948090826332012
5104073 3 18336252518558616080
5283156 175 18409448103062813641
7495541 125 17967533467432078736
77296 10 18201433640822801734
9689198 14 7132443436525988343

> <PUBCHEM_SHAPE_MULTIPOLES>
561.21
21.94
2.31
1.62
1.38
0.36
0.41
9.24
-5.07
-1.45
0.28
2.39
0
-1.93

> <PUBCHEM_SHAPE_SELFOVERLAP>
1180.509

> <PUBCHEM_SHAPE_VOLUME>
322.3

> <PUBCHEM_COORDINATE_TYPE>
2
5
10

$$$$

