17396387
  -OEChem-06241222563D

 42 43  0     0  0  0  0  0  0999 V2000
    5.1743   -0.5314   -1.9737 F   0  0  0  0  0  0  0  0  0  0  0  0
    5.7427    0.0818    0.0275 F   0  0  0  0  0  0  0  0  0  0  0  0
    4.8327   -1.8672   -0.2921 F   0  0  0  0  0  0  0  0  0  0  0  0
   -4.4382    0.9755   -1.7677 O   0  0  0  0  0  0  0  0  0  0  0  0
    1.2551    1.6392    3.0459 O   0  5  0  0  0  0  0  0  0  0  0  0
    0.3574   -0.3371    2.7183 O   0  0  0  0  0  0  0  0  0  0  0  0
   -0.3977    1.6626    0.0873 N   0  0  0  0  0  0  0  0  0  0  0  0
   -3.3045    1.6655    0.1396 N   0  0  0  0  0  0  0  0  0  0  0  0
   -3.2038   -1.9017   -0.0884 N   0  0  0  0  0  0  0  0  0  0  0  0
    1.0369    0.6389    2.3231 N   0  3  0  0  0  0  0  0  0  0  0  0
   -1.2435   -2.6135    0.6746 N   0  0  0  0  0  0  0  0  0  0  0  0
   -1.1864    2.2007   -0.9962 C   0  0  0  0  0  0  0  0  0  0  0  0
   -2.5217    2.7113   -0.4775 C   0  0  0  0  0  0  0  0  0  0  0  0
   -4.8854   -0.1343    0.3348 C   0  0  0  0  0  0  0  0  0  0  0  0
   -4.6239   -1.5702   -0.1088 C   0  0  0  0  0  0  0  0  0  0  0  0
    0.8645    1.1157   -0.0784 C   0  0  0  0  0  0  0  0  0  0  0  0
   -4.2043    0.8800   -0.5659 C   0  0  0  0  0  0  0  0  0  0  0  0
    1.5793    0.6107    1.0077 C   0  0  0  0  0  0  0  0  0  0  0  0
    1.4189    1.0752   -1.3578 C   0  0  0  0  0  0  0  0  0  0  0  0
    3.4029    0.0248   -0.4650 C   0  0  0  0  0  0  0  0  0  0  0  0
    2.8485    0.0651    0.8143 C   0  0  0  0  0  0  0  0  0  0  0  0
    2.6881    0.5299   -1.5511 C   0  0  0  0  0  0  0  0  0  0  0  0
   -2.3218   -1.7462   -1.1204 C   0  0  0  0  0  0  0  0  0  0  0  0
   -2.5110   -2.4251    0.9676 C   0  0  0  0  0  0  0  0  0  0  0  0
    4.7598   -0.5583   -0.6724 C   0  0  0  0  0  0  0  0  0  0  0  0
   -1.1187   -2.1918   -0.6254 C   0  0  0  0  0  0  0  0  0  0  0  0
   -1.3703    1.4276   -1.7521 H   0  0  0  0  0  0  0  0  0  0  0  0
   -0.6595    3.0359   -1.4723 H   0  0  0  0  0  0  0  0  0  0  0  0
   -2.3703    3.4867    0.2815 H   0  0  0  0  0  0  0  0  0  0  0  0
   -3.0968    3.1497   -1.3002 H   0  0  0  0  0  0  0  0  0  0  0  0
   -5.9615    0.0717    0.3012 H   0  0  0  0  0  0  0  0  0  0  0  0
   -4.5719   -0.0064    1.3773 H   0  0  0  0  0  0  0  0  0  0  0  0
   -5.1371   -2.2796    0.5495 H   0  0  0  0  0  0  0  0  0  0  0  0
   -4.9785   -1.7407   -1.1319 H   0  0  0  0  0  0  0  0  0  0  0  0
   -0.7951    1.6812    1.0195 H   0  0  0  0  0  0  0  0  0  0  0  0
   -3.1657    1.5057    1.1328 H   0  0  0  0  0  0  0  0  0  0  0  0
    0.9025    1.4553   -2.2340 H   0  0  0  0  0  0  0  0  0  0  0  0
    3.4105   -0.3307    1.6579 H   0  0  0  0  0  0  0  0  0  0  0  0
    3.1034    0.5069   -2.5549 H   0  0  0  0  0  0  0  0  0  0  0  0
   -2.6112   -1.3493   -2.0833 H   0  0  0  0  0  0  0  0  0  0  0  0
   -2.9778   -2.6451    1.9180 H   0  0  0  0  0  0  0  0  0  0  0  0
   -0.1690   -2.2295   -1.1388 H   0  0  0  0  0  0  0  0  0  0  0  0
  1 25  1  0  0  0  0
  2 25  1  0  0  0  0
  3 25  1  0  0  0  0
  4 17  2  0  0  0  0
  5 10  1  0  0  0  0
  6 10  2  0  0  0  0
  7 12  1  0  0  0  0
  7 16  1  0  0  0  0
  7 35  1  0  0  0  0
  8 13  1  0  0  0  0
  8 17  1  0  0  0  0
  8 36  1  0  0  0  0
  9 15  1  0  0  0  0
  9 23  1  0  0  0  0
  9 24  1  0  0  0  0
 10 18  1  0  0  0  0
 11 24  2  0  0  0  0
 11 26  1  0  0  0  0
 12 13  1  0  0  0  0
 12 27  1  0  0  0  0
 12 28  1  0  0  0  0
 13 29  1  0  0  0  0
 13 30  1  0  0  0  0
 14 15  1  0  0  0  0
 14 17  1  0  0  0  0
 14 31  1  0  0  0  0
 14 32  1  0  0  0  0
 15 33  1  0  0  0  0
 15 34  1  0  0  0  0
 16 18  2  0  0  0  0
 16 19  1  0  0  0  0
 18 21  1  0  0  0  0
 19 22  2  0  0  0  0
 19 37  1  0  0  0  0
 20 21  2  0  0  0  0
 20 22  1  0  0  0  0
 20 25  1  0  0  0  0
 21 38  1  0  0  0  0
 22 39  1  0  0  0  0
 23 26  2  0  0  0  0
 23 40  1  0  0  0  0
 24 41  1  0  0  0  0
 26 42  1  0  0  0  0
M  CHG  2   5  -1  10   1
M  END
> <PUBCHEM_COMPOUND_CID>
17396387

> <PUBCHEM_CONFORMER_RMSD>
1

> <PUBCHEM_CONFORMER_DIVERSEORDER>
1
101
90
173
181
71
185
136
70
30
117
184
115
59
123
86
97
104
76
146
209
122
130
189
56
62
171
125
50
143
55
177
61
110
138
87
112
42
31
35
199
3
9
168
57
192
17
89
134
118
120
128
20
107
137
68
124
205
206
38
202
169
65
106
145
155
11
149
193
51
13
15
172
203
161
73
129
96
91
19
126
60
109
39
49
12
47
119
108
167
198
170
159
64
210
190
81
182
139
69
135
121
94
44
191
80
21
144
166
40
194
79
196
148
45
5
164
200
207
150
52
140
33
111
99
183
127
160
32
163
180
14
92
85
72
156
157
27
187
102
53
29
208
98
197
103
58
7
204
66
78
10
75
46
41
175
114
113
154
24
176
165
6
179
22
2
4
212
36
100
174
151
28
48
84
132
54
95
18
23
158
195
105
162
16
82
43
77
88
63
25
142
133
153
178
67
34
26
147
201
141
211
131
83
74
186
116
152
8
188
93
37

> <PUBCHEM_MMFF94_PARTIAL_CHARGES>
34
1 -0.34
10 0.91
11 -0.57
12 0.37
13 0.3
14 0.06
15 0.26
16 0.1
17 0.57
18 0.13
19 -0.15
2 -0.34
20 -0.14
21 -0.15
22 -0.15
23 -0.3
24 0.04
25 1.16
26 0.08
3 -0.34
35 0.4
36 0.37
37 0.15
38 0.15
39 0.15
4 -0.57
40 0.15
41 0.15
42 0.15
5 -0.52
6 -0.52
7 -0.87
8 -0.73
9 0.05

> <PUBCHEM_EFFECTIVE_ROTOR_COUNT>
10

> <PUBCHEM_PHARMACOPHORE_FEATURES>
10
1 4 acceptor
1 5 acceptor
1 5 anion
1 6 acceptor
1 7 cation
1 7 donor
1 8 donor
3 9 11 24 cation
5 9 11 23 24 26 rings
6 16 18 19 20 21 22 rings

> <PUBCHEM_HEAVY_ATOM_COUNT>
26

> <PUBCHEM_ATOM_DEF_STEREO_COUNT>
0

> <PUBCHEM_ATOM_UDEF_STEREO_COUNT>
0

> <PUBCHEM_BOND_DEF_STEREO_COUNT>
0

> <PUBCHEM_BOND_UDEF_STEREO_COUNT>
0

> <PUBCHEM_ISOTOPIC_ATOM_COUNT>
0

> <PUBCHEM_COMPONENT_COUNT>
1

> <PUBCHEM_CACTVS_TAUTO_COUNT>
2

> <PUBCHEM_CONFORMER_ID>
010972A300000001

> <PUBCHEM_MMFF94_ENERGY>
52.2759

> <PUBCHEM_FEATURE_SELFOVERLAP>
50.827

> <PUBCHEM_SHAPE_FINGERPRINT>
10759866 29 17345767411493838331
11578080 2 18115584834121221296
12166972 35 5616665455290923009
12467345 10 17917988360813344260
12633257 1 16443340919440543367
12969540 114 14548728479024741260
13402501 40 18333447655827148191
13941206 138 17917990628715007587
13947920 75 18060706083070269808
14114206 34 17917167008874794415
14251740 79 18335974371859598026
14251751 93 18060138790424903381
14251757 17 18189888910412775759
14251757 5 18201432549901407559
16752209 62 18200331939463318439
17349148 13 14779544547932726319
192875 21 14996558452415953355
19784866 135 18411138021800404046
21634736 98 17916582029528144517
22393880 68 17418100922837198765
23419403 2 17604156926177725288
23559900 14 18335147457448263353
2637199 183 17418095390634361323
3459 83 17346042281180509850
602551 16 18410295821869072676
6437827 68 18267304425003427814
9862886 166 18333450954530628368

> <PUBCHEM_SHAPE_MULTIPOLES>
470.73
10.43
2.77
1.97
5
0.38
-1.48
2.48
3.66
-2.93
0.2
1.31
-0.4
0.76

> <PUBCHEM_SHAPE_SELFOVERLAP>
990.573

> <PUBCHEM_SHAPE_VOLUME>
267.3

> <PUBCHEM_COORDINATE_TYPE>
2
5
10

$$$$

