12192
  -OEChem-06261206382D

 14 13  0     0  0  0  0  0  0999 V2000
    5.4641    0.7500    0.0000 O   0  0  0  0  0  0  0  0  0  0  0  0
    4.5981   -0.7500    0.0000 O   0  5  0  0  0  0  0  0  0  0  0  0
    2.8660    0.2500    0.0000 N   0  3  0  0  0  0  0  0  0  0  0  0
    2.0000   -0.2500    0.0000 N   0  0  0  0  0  0  0  0  0  0  0  0
    6.3301    0.2500    0.0000 C   0  0  0  0  0  0  0  0  0  0  0  0
    7.1962    0.7500    0.0000 C   0  0  0  0  0  0  0  0  0  0  0  0
    4.5981    0.2500    0.0000 C   0  0  0  0  0  0  0  0  0  0  0  0
    3.7320    0.7500    0.0000 C   0  0  0  0  0  0  0  0  0  0  0  0
    5.9316   -0.2249    0.0000 H   0  0  0  0  0  0  0  0  0  0  0  0
    6.7287   -0.2249    0.0000 H   0  0  0  0  0  0  0  0  0  0  0  0
    7.5062    0.2131    0.0000 H   0  0  0  0  0  0  0  0  0  0  0  0
    7.7331    1.0600    0.0000 H   0  0  0  0  0  0  0  0  0  0  0  0
    6.8862    1.2869    0.0000 H   0  0  0  0  0  0  0  0  0  0  0  0
    3.7320    1.3700    0.0000 H   0  0  0  0  0  0  0  0  0  0  0  0
  1  5  1  0  0  0  0
  1  7  1  0  0  0  0
  2  7  1  0  0  0  0
  3  4  3  0  0  0  0
  3  8  1  0  0  0  0
  5  6  1  0  0  0  0
  5  9  1  0  0  0  0
  5 10  1  0  0  0  0
  6 11  1  0  0  0  0
  6 12  1  0  0  0  0
  6 13  1  0  0  0  0
  7  8  2  3  0  0  0
  8 14  1  0  0  0  0
M  CHG  2   2  -1   3   1
M  END
> <PUBCHEM_COMPOUND_CID>
12192

> <PUBCHEM_COMPOUND_CANONICALIZED>
1

> <PUBCHEM_CACTVS_COMPLEXITY>
132

> <PUBCHEM_CACTVS_HBOND_ACCEPTOR>
3

> <PUBCHEM_CACTVS_HBOND_DONOR>
0

> <PUBCHEM_CACTVS_ROTATABLE_BOND>
2

> <PUBCHEM_CACTVS_SUBSKEYS>
AAADcYBjMAAAAAAAAAAAAAAAAAAAAAAAAAAAAAAAAAAAAAAAAAAAHgAIAAAAAADhgAYCCAAABACAAAAGQAAACAAAAAAAAAAAAAAQAAAAAAAAAAAAAAAEAAAAAAAAAAAAAAAAAAAAAAAAAAAAAAAAAAAAAA==

> <PUBCHEM_IUPAC_OPENEYE_NAME>
2-diazonio-1-ethoxy-ethenolate

> <PUBCHEM_IUPAC_CAS_NAME>
2-diazonio-1-ethoxyethenolate

> <PUBCHEM_IUPAC_NAME>
2-diazonio-1-ethoxyethenolate

> <PUBCHEM_IUPAC_SYSTEMATIC_NAME>
2-diazonio-1-ethoxy-ethenolate

> <PUBCHEM_IUPAC_TRADITIONAL_NAME>
2-diazonio-1-ethoxy-ethenolate

> <PUBCHEM_IUPAC_INCHI>
InChI=1S/C4H6N2O2/c1-2-8-4(7)3-6-5/h3H,2H2,1H3

> <PUBCHEM_IUPAC_INCHIKEY>
YVPJCJLMRRTDMQ-UHFFFAOYSA-N

> <PUBCHEM_XLOGP3_AA>
2

> <PUBCHEM_EXACT_MASS>
114.042927

> <PUBCHEM_MOLECULAR_FORMULA>
C4H6N2O2

> <PUBCHEM_MOLECULAR_WEIGHT>
114.10264

> <PUBCHEM_OPENEYE_CAN_SMILES>
CCOC(=C[N+]#N)[O-]

> <PUBCHEM_OPENEYE_ISO_SMILES>
CCOC(=C[N+]#N)[O-]

> <PUBCHEM_CACTVS_TPSA>
60.4

> <PUBCHEM_MONOISOTOPIC_WEIGHT>
114.042927

> <PUBCHEM_TOTAL_CHARGE>
0

> <PUBCHEM_HEAVY_ATOM_COUNT>
8

> <PUBCHEM_ATOM_DEF_STEREO_COUNT>
0

> <PUBCHEM_ATOM_UDEF_STEREO_COUNT>
0

> <PUBCHEM_BOND_DEF_STEREO_COUNT>
0

> <PUBCHEM_BOND_UDEF_STEREO_COUNT>
1

> <PUBCHEM_ISOTOPIC_ATOM_COUNT>
0

> <PUBCHEM_COMPONENT_COUNT>
1

> <PUBCHEM_CACTVS_TAUTO_COUNT>
1

> <PUBCHEM_COORDINATE_TYPE>
1
5
255

> <PUBCHEM_BONDANNOTATIONS>
7  8  1

$$$$

