17396447
  -OEChem-06241222563D

 50 52  0     0  0  0  0  0  0999 V2000
    2.2712    1.7250   -2.0560 O   0  0  0  0  0  0  0  0  0  0  0  0
    3.4957   -1.2487   -1.0904 O   0  0  0  0  0  0  0  0  0  0  0  0
    5.8373   -1.7115    0.3043 O   0  0  0  0  0  0  0  0  0  0  0  0
   -1.5082   -0.3385    0.4544 N   0  0  0  0  0  0  0  0  0  0  0  0
    0.9344    0.9529   -0.3006 N   0  0  0  0  0  0  0  0  0  0  0  0
   -8.9442    0.8596   -0.1080 N   0  0  0  0  0  0  0  0  0  0  0  0
   -0.2305   -0.7638    1.0438 C   0  0  0  0  0  0  0  0  0  0  0  0
   -1.3072    0.1292   -0.9248 C   0  0  0  0  0  0  0  0  0  0  0  0
    0.7855    0.3805    1.0420 C   0  0  0  0  0  0  0  0  0  0  0  0
   -0.3235    1.2977   -0.9593 C   0  0  0  0  0  0  0  0  0  0  0  0
   -2.4794   -1.4312    0.4899 C   0  0  0  0  0  0  0  0  0  0  0  0
    2.1465    1.2449   -0.9302 C   0  0  0  0  0  0  0  0  0  0  0  0
   -3.8929   -0.9299    0.3589 C   0  0  0  0  0  0  0  0  0  0  0  0
    3.3913    0.9703   -0.2002 C   0  0  0  0  0  0  0  0  0  0  0  0
   -4.3107    0.1785    1.0956 C   0  0  0  0  0  0  0  0  0  0  0  0
   -4.7850   -1.5743   -0.4982 C   0  0  0  0  0  0  0  0  0  0  0  0
    4.0258   -0.2675   -0.3049 C   0  0  0  0  0  0  0  0  0  0  0  0
    3.9384    1.9686    0.6061 C   0  0  0  0  0  0  0  0  0  0  0  0
   -5.6206    0.6423    0.9751 C   0  0  0  0  0  0  0  0  0  0  0  0
   -6.0949   -1.1104   -0.6186 C   0  0  0  0  0  0  0  0  0  0  0  0
    5.2073   -0.5071    0.3967 C   0  0  0  0  0  0  0  0  0  0  0  0
   -6.5127   -0.0020    0.1180 C   0  0  0  0  0  0  0  0  0  0  0  0
    5.1199    1.7289    1.3077 C   0  0  0  0  0  0  0  0  0  0  0  0
    5.7544    0.4911    1.2030 C   0  0  0  0  0  0  0  0  0  0  0  0
    3.9171   -1.2852   -2.4516 C   0  0  0  0  0  0  0  0  0  0  0  0
   -7.8546    0.4735   -0.0067 C   0  0  0  0  0  0  0  0  0  0  0  0
    7.0397   -1.8730    1.0540 C   0  0  0  0  0  0  0  0  0  0  0  0
    0.1814   -1.6189    0.4911 H   0  0  0  0  0  0  0  0  0  0  0  0
   -0.3816   -1.0834    2.0819 H   0  0  0  0  0  0  0  0  0  0  0  0
   -2.2516    0.4718   -1.3632 H   0  0  0  0  0  0  0  0  0  0  0  0
   -0.9270   -0.6840   -1.5576 H   0  0  0  0  0  0  0  0  0  0  0  0
    1.7380    0.0197    1.4361 H   0  0  0  0  0  0  0  0  0  0  0  0
    0.4476    1.1918    1.6986 H   0  0  0  0  0  0  0  0  0  0  0  0
   -0.7382    2.1646   -0.4302 H   0  0  0  0  0  0  0  0  0  0  0  0
   -0.1460    1.6029   -1.9957 H   0  0  0  0  0  0  0  0  0  0  0  0
   -2.2510   -2.1895   -0.2709 H   0  0  0  0  0  0  0  0  0  0  0  0
   -2.4358   -1.9473    1.4590 H   0  0  0  0  0  0  0  0  0  0  0  0
   -3.6363    0.6883    1.7785 H   0  0  0  0  0  0  0  0  0  0  0  0
   -4.4731   -2.4392   -1.0775 H   0  0  0  0  0  0  0  0  0  0  0  0
    3.4526    2.9368    0.6958 H   0  0  0  0  0  0  0  0  0  0  0  0
   -5.9323    1.5061    1.5577 H   0  0  0  0  0  0  0  0  0  0  0  0
   -6.7786   -1.6232   -1.2909 H   0  0  0  0  0  0  0  0  0  0  0  0
    5.5447    2.5068    1.9354 H   0  0  0  0  0  0  0  0  0  0  0  0
    6.6678    0.3769    1.7764 H   0  0  0  0  0  0  0  0  0  0  0  0
    3.7562   -0.3228   -2.9458 H   0  0  0  0  0  0  0  0  0  0  0  0
    4.9743   -1.5617   -2.5132 H   0  0  0  0  0  0  0  0  0  0  0  0
    3.3280   -2.0459   -2.9711 H   0  0  0  0  0  0  0  0  0  0  0  0
    7.8222   -1.1853    0.7154 H   0  0  0  0  0  0  0  0  0  0  0  0
    6.8567   -1.7994    2.1315 H   0  0  0  0  0  0  0  0  0  0  0  0
    7.4046   -2.8877    0.8627 H   0  0  0  0  0  0  0  0  0  0  0  0
  1 12  2  0  0  0  0
  2 17  1  0  0  0  0
  2 25  1  0  0  0  0
  3 21  1  0  0  0  0
  3 27  1  0  0  0  0
  4  7  1  0  0  0  0
  4  8  1  0  0  0  0
  4 11  1  0  0  0  0
  5  9  1  0  0  0  0
  5 10  1  0  0  0  0
  5 12  1  0  0  0  0
  6 26  3  0  0  0  0
  7  9  1  0  0  0  0
  7 28  1  0  0  0  0
  7 29  1  0  0  0  0
  8 10  1  0  0  0  0
  8 30  1  0  0  0  0
  8 31  1  0  0  0  0
  9 32  1  0  0  0  0
  9 33  1  0  0  0  0
 10 34  1  0  0  0  0
 10 35  1  0  0  0  0
 11 13  1  0  0  0  0
 11 36  1  0  0  0  0
 11 37  1  0  0  0  0
 12 14  1  0  0  0  0
 13 15  2  0  0  0  0
 13 16  1  0  0  0  0
 14 17  2  0  0  0  0
 14 18  1  0  0  0  0
 15 19  1  0  0  0  0
 15 38  1  0  0  0  0
 16 20  2  0  0  0  0
 16 39  1  0  0  0  0
 17 21  1  0  0  0  0
 18 23  2  0  0  0  0
 18 40  1  0  0  0  0
 19 22  2  0  0  0  0
 19 41  1  0  0  0  0
 20 22  1  0  0  0  0
 20 42  1  0  0  0  0
 21 24  2  0  0  0  0
 22 26  1  0  0  0  0
 23 24  1  0  0  0  0
 23 43  1  0  0  0  0
 24 44  1  0  0  0  0
 25 45  1  0  0  0  0
 25 46  1  0  0  0  0
 25 47  1  0  0  0  0
 27 48  1  0  0  0  0
 27 49  1  0  0  0  0
 27 50  1  0  0  0  0
M  END
> <PUBCHEM_COMPOUND_CID>
17396447

> <PUBCHEM_CONFORMER_RMSD>
0.8

> <PUBCHEM_CONFORMER_DIVERSEORDER>
1
31
67
116
100
104
33
155
151
26
143
144
98
152
136
109
59
36
154
124
25
99
24
15
97
89
134
167
78
164
102
77
73
94
113
45
69
86
108
50
112
168
117
60
30
131
123
40
163
110
133
32
153
52
56
91
121
118
82
47
141
4
85
106
28
72
162
149
150
126
61
62
7
92
19
129
74
105
115
87
148
22
49
122
165
93
79
127
23
5
159
147
166
101
21
51
80
70
71
55
111
11
157
68
14
41
156
84
44
57
37
138
120
96
2
39
63
119
130
145
142
16
6
81
103
43
35
53
95
48
140
34
139
38
88
137
161
125
160
158
27
42
20
114
83
18
46
65
76
66
90
132
13
146
64
135
75
58
107
3
17
10
128
9
8
12
29
54

> <PUBCHEM_MMFF94_PARTIAL_CHARGES>
34
1 -0.57
10 0.3
11 0.41
12 0.54
13 -0.14
14 0.09
15 -0.15
16 -0.15
17 0.08
18 -0.15
19 -0.15
2 -0.36
20 -0.15
21 0.08
22 0.07
23 -0.15
24 -0.15
25 0.28
26 0.48
27 0.28
3 -0.36
38 0.15
39 0.15
4 -0.81
40 0.15
41 0.15
42 0.15
43 0.15
44 0.15
5 -0.66
6 -0.56
7 0.27
8 0.27
9 0.3

> <PUBCHEM_EFFECTIVE_ROTOR_COUNT>
7.2

> <PUBCHEM_PHARMACOPHORE_FEATURES>
8
1 1 acceptor
1 2 acceptor
1 3 acceptor
1 4 cation
1 6 acceptor
6 13 15 16 19 20 22 rings
6 14 17 18 21 23 24 rings
6 4 5 7 8 9 10 rings

> <PUBCHEM_HEAVY_ATOM_COUNT>
27

> <PUBCHEM_ATOM_DEF_STEREO_COUNT>
0

> <PUBCHEM_ATOM_UDEF_STEREO_COUNT>
0

> <PUBCHEM_BOND_DEF_STEREO_COUNT>
0

> <PUBCHEM_BOND_UDEF_STEREO_COUNT>
0

> <PUBCHEM_ISOTOPIC_ATOM_COUNT>
0

> <PUBCHEM_COMPONENT_COUNT>
1

> <PUBCHEM_CACTVS_TAUTO_COUNT>
1

> <PUBCHEM_CONFORMER_ID>
010972DF00000001

> <PUBCHEM_MMFF94_ENERGY>
90.2562

> <PUBCHEM_FEATURE_SELFOVERLAP>
40.599

> <PUBCHEM_SHAPE_FINGERPRINT>
10 15 15719400516651612106
11135609 127 17968950668868898824
11719270 70 16950280710892049638
11724838 91 6194834878285102050
12236239 1 18411702041854595475
12373685 5 17240493502704284927
12616971 3 17560519495920185103
12730499 353 9871753498821405404
13533116 47 17749659775105344190
13914758 101 18409730682046774633
14211702 104 18268986480230938171
14216079 64 18202004378037740970
14294032 229 16342029899375720653
14341114 176 12535346775517960695
14347424 109 18410296895906562472
14856354 85 14189570845907345723
15131766 46 17244161323150429272
15142383 8 18410578387514372833
15183329 4 18409720768998218943
15728490 51 8358244957057271161
1577012 14 18129655297686125709
18335252 98 10303812098803215393
19141452 34 18342459183976575370
20157964 124 17531241760019151901
20511986 3 17676779694661602663
21130935 74 18340491062605718531
21344244 78 16153989175126855122
21774942 28 17749382733105141265
21781051 124 15984811640927448323
21859007 373 18341337802934725245
22224240 67 5039944148553335726
23035841 295 13110968617618769129
23536379 177 18260267430310096883
23569917 315 18201433641752438627
23569943 247 18058457680022692754
3004659 81 18187075149004728278
3633792 109 18114460163065044083
4073 2 18269837506419848154
4340502 62 17022619767290649070
6441014 3 16669341428389484910
8988823 20 17967250880143084688

> <PUBCHEM_SHAPE_MULTIPOLES>
523.1
21.73
1.84
1.5
26.8
0.1
-0.64
1.76
4.02
-2.25
-0.1
-1.83
0.06
0.01

> <PUBCHEM_SHAPE_SELFOVERLAP>
1113.167

> <PUBCHEM_SHAPE_VOLUME>
289

> <PUBCHEM_COORDINATE_TYPE>
2
5
10

$$$$

