13222
  -OEChem-06261207553D

 24 24  0     0  0  0  0  0  0999 V2000
   -3.1326   -0.7650    0.0703 O   0  0  0  0  0  0  0  0  0  0  0  0
   -1.4895   -1.2392   -1.3996 O   0  0  0  0  0  0  0  0  0  0  0  0
   -1.0756    0.5255    0.2542 C   0  0  0  0  0  0  0  0  0  0  0  0
    0.4307    0.2083    0.1344 C   0  0  0  0  0  0  0  0  0  0  0  0
   -1.4338    0.6207    1.7551 C   0  0  0  0  0  0  0  0  0  0  0  0
   -1.4751    1.8572   -0.4172 C   0  0  0  0  0  0  0  0  0  0  0  0
   -1.8878   -0.5855   -0.4415 C   0  0  0  0  0  0  0  0  0  0  0  0
    0.8889   -0.9619    0.6782 C   0  0  0  0  0  0  0  0  0  0  0  0
    1.2313    1.1140   -0.5093 C   0  0  0  0  0  0  0  0  0  0  0  0
    2.2498   -1.2482    0.5703 C   0  0  0  0  0  0  0  0  0  0  0  0
    2.5922    0.8277   -0.6173 C   0  0  0  0  0  0  0  0  0  0  0  0
    3.1015   -0.3535   -0.0775 C   0  0  0  0  0  0  0  0  0  0  0  0
   -1.3529   -0.3472    2.2626 H   0  0  0  0  0  0  0  0  0  0  0  0
   -0.7788    1.3291    2.2763 H   0  0  0  0  0  0  0  0  0  0  0  0
   -2.4656    0.9633    1.8978 H   0  0  0  0  0  0  0  0  0  0  0  0
   -1.2681    1.8532   -1.4942 H   0  0  0  0  0  0  0  0  0  0  0  0
   -2.5551    2.0267   -0.3191 H   0  0  0  0  0  0  0  0  0  0  0  0
   -0.9782    2.7198    0.0416 H   0  0  0  0  0  0  0  0  0  0  0  0
    0.2384   -1.6718    1.1779 H   0  0  0  0  0  0  0  0  0  0  0  0
    0.8923    2.0444   -0.9456 H   0  0  0  0  0  0  0  0  0  0  0  0
    2.6462   -2.1687    0.9889 H   0  0  0  0  0  0  0  0  0  0  0  0
    3.2563    1.5239   -1.1215 H   0  0  0  0  0  0  0  0  0  0  0  0
    4.1611   -0.5766   -0.1620 H   0  0  0  0  0  0  0  0  0  0  0  0
   -3.6271   -1.4642   -0.4078 H   0  0  0  0  0  0  0  0  0  0  0  0
  1  7  1  0  0  0  0
  1 24  1  0  0  0  0
  2  7  2  0  0  0  0
  3  4  1  0  0  0  0
  3  5  1  0  0  0  0
  3  6  1  0  0  0  0
  3  7  1  0  0  0  0
  4  8  2  0  0  0  0
  4  9  1  0  0  0  0
  5 13  1  0  0  0  0
  5 14  1  0  0  0  0
  5 15  1  0  0  0  0
  6 16  1  0  0  0  0
  6 17  1  0  0  0  0
  6 18  1  0  0  0  0
  8 10  1  0  0  0  0
  8 19  1  0  0  0  0
  9 11  2  0  0  0  0
  9 20  1  0  0  0  0
 10 12  2  0  0  0  0
 10 21  1  0  0  0  0
 11 12  1  0  0  0  0
 11 22  1  0  0  0  0
 12 23  1  0  0  0  0
M  END
> <PUBCHEM_COMPOUND_CID>
13222

> <PUBCHEM_CONFORMER_RMSD>
0.6

> <PUBCHEM_CONFORMER_DIVERSEORDER>
1
3
4
2

> <PUBCHEM_MMFF94_PARTIAL_CHARGES>
16
1 -0.65
10 -0.15
11 -0.15
12 -0.15
19 0.15
2 -0.57
20 0.15
21 0.15
22 0.15
23 0.15
24 0.5
3 0.2
4 -0.14
7 0.66
8 -0.15
9 -0.15

> <PUBCHEM_EFFECTIVE_ROTOR_COUNT>
2

> <PUBCHEM_PHARMACOPHORE_FEATURES>
5
1 1 acceptor
1 2 acceptor
3 1 2 7 anion
3 3 5 6 hydrophobe
6 4 8 9 10 11 12 rings

> <PUBCHEM_HEAVY_ATOM_COUNT>
12

> <PUBCHEM_ATOM_DEF_STEREO_COUNT>
0

> <PUBCHEM_ATOM_UDEF_STEREO_COUNT>
0

> <PUBCHEM_BOND_DEF_STEREO_COUNT>
0

> <PUBCHEM_BOND_UDEF_STEREO_COUNT>
0

> <PUBCHEM_ISOTOPIC_ATOM_COUNT>
0

> <PUBCHEM_COMPONENT_COUNT>
1

> <PUBCHEM_CACTVS_TAUTO_COUNT>
1

> <PUBCHEM_CONFORMER_ID>
000033A600000001

> <PUBCHEM_MMFF94_ENERGY>
38.7315

> <PUBCHEM_FEATURE_SELFOVERLAP>
25.434

> <PUBCHEM_SHAPE_FINGERPRINT>
10857977 72 16081089242710560099
12423570 1 5319649963720563369
12897270 3 18273218564519496678
12932764 1 18336539499725441648
13024252 1 17203602714011763441
14128692 85 18262527995883085638
15310529 11 18343303673489063133
15775835 57 18409720781477289528
16945 1 18339091379986914806
20201158 50 17418374679430201866
20653085 51 16702030815351790957
23402539 116 14476693953013742075
23552423 10 18202003278182812210
2748010 2 18130223890878336100
276578 36 16591371653074790155
3248919 1 17168147900907017264
369184 2 18341611542152595704
5084963 1 18408603669152383120
528886 8 18201443549280698753
8030462 33 17988915695800588964

> <PUBCHEM_SHAPE_MULTIPOLES>
235.22
4.22
1.52
1.15
0.96
0.31
0.23
-0.61
-0.32
-0.11
-0.18
-0.6
-0.11
-0.56

> <PUBCHEM_SHAPE_SELFOVERLAP>
489.807

> <PUBCHEM_SHAPE_VOLUME>
134.1

> <PUBCHEM_COORDINATE_TYPE>
2
5
10

$$$$

