12797
  -OEChem-06261207233D

 22 23  0     1  0  0  0  0  0999 V2000
   -0.6100   -0.8953    0.4929 O   0  0  0  0  0  0  0  0  0  0  0  0
   -3.4184    1.4468   -0.3728 N   0  0  0  0  0  0  0  0  0  0  0  0
   -2.7735    0.3276    0.3174 C   0  0  2  0  0  0  0  0  0  0  0  0
   -1.6630   -0.4354   -0.3528 C   0  0  2  0  0  0  0  0  0  0  0  0
   -3.0087   -1.0780   -0.1525 C   0  0  0  0  0  0  0  0  0  0  0  0
    0.6358   -0.4010    0.2556 C   0  0  0  0  0  0  0  0  0  0  0  0
    0.8692    0.9717    0.3395 C   0  0  0  0  0  0  0  0  0  0  0  0
    1.6788   -1.2669   -0.0727 C   0  0  0  0  0  0  0  0  0  0  0  0
    2.1457    1.4784    0.0953 C   0  0  0  0  0  0  0  0  0  0  0  0
    2.9553   -0.7603   -0.3168 C   0  0  0  0  0  0  0  0  0  0  0  0
    3.1887    0.6124   -0.2329 C   0  0  0  0  0  0  0  0  0  0  0  0
   -1.4198   -0.1881   -1.3832 H   0  0  0  0  0  0  0  0  0  0  0  0
   -2.6930    0.4700    1.3907 H   0  0  0  0  0  0  0  0  0  0  0  0
   -3.0998   -1.8527    0.5997 H   0  0  0  0  0  0  0  0  0  0  0  0
   -3.6247   -1.2374   -1.0296 H   0  0  0  0  0  0  0  0  0  0  0  0
   -2.8959    2.3062   -0.2080 H   0  0  0  0  0  0  0  0  0  0  0  0
   -4.3494    1.6044    0.0106 H   0  0  0  0  0  0  0  0  0  0  0  0
    0.0676    1.6571    0.6010 H   0  0  0  0  0  0  0  0  0  0  0  0
    1.5030   -2.3370   -0.1401 H   0  0  0  0  0  0  0  0  0  0  0  0
    2.3278    2.5470    0.1622 H   0  0  0  0  0  0  0  0  0  0  0  0
    3.7675   -1.4346   -0.5723 H   0  0  0  0  0  0  0  0  0  0  0  0
    4.1826    1.0069   -0.4227 H   0  0  0  0  0  0  0  0  0  0  0  0
  1  4  1  0  0  0  0
  1  6  1  0  0  0  0
  2  3  1  0  0  0  0
  2 16  1  0  0  0  0
  2 17  1  0  0  0  0
  3  4  1  0  0  0  0
  3  5  1  0  0  0  0
  3 13  1  0  0  0  0
  4  5  1  0  0  0  0
  4 12  1  0  0  0  0
  5 14  1  0  0  0  0
  5 15  1  0  0  0  0
  6  7  2  0  0  0  0
  6  8  1  0  0  0  0
  7  9  1  0  0  0  0
  7 18  1  0  0  0  0
  8 10  2  0  0  0  0
  8 19  1  0  0  0  0
  9 11  2  0  0  0  0
  9 20  1  0  0  0  0
 10 11  1  0  0  0  0
 10 21  1  0  0  0  0
 11 22  1  0  0  0  0
M  END
> <PUBCHEM_COMPOUND_CID>
12797

> <PUBCHEM_CONFORMER_RMSD>
0.6

> <PUBCHEM_CONFORMER_DIVERSEORDER>
1
5
6
3
4
2

> <PUBCHEM_MMFF94_PARTIAL_CHARGES>
22
1 -0.23
10 -0.15
11 -0.15
12 0.1
13 0.1
14 0.1
15 0.1
16 0.36
17 0.36
18 0.15
19 0.15
2 -0.88
20 0.15
21 0.15
22 0.15
3 0.06
4 0.05
5 -0.2
6 0.08
7 -0.15
8 -0.15
9 -0.15

> <PUBCHEM_EFFECTIVE_ROTOR_COUNT>
2.6

> <PUBCHEM_PHARMACOPHORE_FEATURES>
4
1 1 acceptor
1 2 cation
1 2 donor
6 6 7 8 9 10 11 rings

> <PUBCHEM_HEAVY_ATOM_COUNT>
11

> <PUBCHEM_ATOM_DEF_STEREO_COUNT>
2

> <PUBCHEM_ATOM_UDEF_STEREO_COUNT>
0

> <PUBCHEM_BOND_DEF_STEREO_COUNT>
0

> <PUBCHEM_BOND_UDEF_STEREO_COUNT>
0

> <PUBCHEM_ISOTOPIC_ATOM_COUNT>
0

> <PUBCHEM_COMPONENT_COUNT>
1

> <PUBCHEM_CACTVS_TAUTO_COUNT>
1

> <PUBCHEM_CONFORMER_ID>
000031FD00000001

> <PUBCHEM_MMFF94_ENERGY>
29.9739

> <PUBCHEM_FEATURE_SELFOVERLAP>
20.297

> <PUBCHEM_SHAPE_FINGERPRINT>
10130415 120 18271249421268189530
10608611 8 18411421674383646953
11401426 45 18261114071802023418
12897270 3 18335421231590193171
12932764 1 17531531975301860491
14144814 61 18408886230618747555
14325111 11 18410855430073946731
14390081 3 18413110532939022233
15775835 57 18412822512521998677
17844478 74 18130212788377274601
18186145 218 18333723632886887026
19973954 147 18411980217858741697
20201158 50 18408884061713094958
20645477 70 18334576884033380599
20653085 51 18412820296350464201
23402655 69 18335143102709712373
3248919 1 17346314864915313115
93112 12 18407760348007799223

> <PUBCHEM_SHAPE_MULTIPOLES>
215.52
5.95
1.5
0.68
2.32
0.23
0
0.78
0.73
-0.05
0.04
0.03
0
0.16

> <PUBCHEM_SHAPE_SELFOVERLAP>
446.384

> <PUBCHEM_SHAPE_VOLUME>
123.4

> <PUBCHEM_COORDINATE_TYPE>
2
5
10

$$$$

