582881
  -OEChem-06241222443D

 67 67  0     1  0  0  0  0  0999 V2000
    4.4331    1.0591    1.2567 Si  0  0  0  0  0  0  0  0  0  0  0  0
    2.9010    0.4126    1.0649 O   0  0  0  0  0  0  0  0  0  0  0  0
    0.4183   -0.7971    1.8665 O   0  0  0  0  0  0  0  0  0  0  0  0
    2.1527    0.7194   -0.1122 C   0  0  1  0  0  0  0  0  0  0  0  0
    1.1725   -0.4427   -0.4037 C   0  0  1  0  0  0  0  0  0  0  0  0
    1.5094    2.1090    0.0294 C   0  0  0  0  0  0  0  0  0  0  0  0
    1.9245   -1.7813   -0.5766 C   0  0  0  0  0  0  0  0  0  0  0  0
    0.7935    2.5400   -1.2580 C   0  0  0  0  0  0  0  0  0  0  0  0
    0.9938   -2.9171   -1.0239 C   0  0  0  0  0  0  0  0  0  0  0  0
    0.1064   -0.5714    0.6941 C   0  0  0  0  0  0  0  0  0  0  0  0
    0.1547    3.9290   -1.1606 C   0  0  0  0  0  0  0  0  0  0  0  0
    1.7772   -4.2102   -1.2635 C   0  0  0  0  0  0  0  0  0  0  0  0
    4.3531    2.8460    1.8386 C   0  0  0  0  0  0  0  0  0  0  0  0
    5.3432    1.0245   -0.3927 C   0  0  0  0  0  0  0  0  0  0  0  0
    5.4426    0.0698    2.4981 C   0  0  0  0  0  0  0  0  0  0  0  0
   -0.4918    4.3936   -2.4662 C   0  0  0  0  0  0  0  0  0  0  0  0
    0.8934   -5.3830   -1.6939 C   0  0  0  0  0  0  0  0  0  0  0  0
   -1.3474   -0.4195    0.3849 C   0  0  0  0  0  0  0  0  0  0  0  0
   -1.1217    5.7697   -2.3133 C   0  0  0  0  0  0  0  0  0  0  0  0
    1.6561   -6.6877   -1.8644 C   0  0  0  0  0  0  0  0  0  0  0  0
   -2.3479   -0.5141    1.2711 C   0  0  0  0  0  0  0  0  0  0  0  0
   -3.7719   -0.3484    0.9285 C   0  0  0  0  0  0  0  0  0  0  0  0
   -4.1346    0.3180   -0.2421 C   0  0  0  0  0  0  0  0  0  0  0  0
   -4.7569   -0.8580    1.7746 C   0  0  0  0  0  0  0  0  0  0  0  0
   -5.4821    0.4751   -0.5664 C   0  0  0  0  0  0  0  0  0  0  0  0
   -6.1045   -0.7009    1.4502 C   0  0  0  0  0  0  0  0  0  0  0  0
   -6.4670   -0.0344    0.2797 C   0  0  0  0  0  0  0  0  0  0  0  0
    2.8193    0.7510   -0.9843 H   0  0  0  0  0  0  0  0  0  0  0  0
    0.6604   -0.2378   -1.3508 H   0  0  0  0  0  0  0  0  0  0  0  0
    0.8102    2.1176    0.8744 H   0  0  0  0  0  0  0  0  0  0  0  0
    2.2542    2.8714    0.2585 H   0  0  0  0  0  0  0  0  0  0  0  0
    2.4081   -2.0711    0.3645 H   0  0  0  0  0  0  0  0  0  0  0  0
    2.7194   -1.6540   -1.3222 H   0  0  0  0  0  0  0  0  0  0  0  0
    0.0026    1.8268   -1.5111 H   0  0  0  0  0  0  0  0  0  0  0  0
    1.5107    2.5323   -2.0880 H   0  0  0  0  0  0  0  0  0  0  0  0
    0.4754   -2.6294   -1.9463 H   0  0  0  0  0  0  0  0  0  0  0  0
    0.2272   -3.1009   -0.2628 H   0  0  0  0  0  0  0  0  0  0  0  0
    0.9211    4.6553   -0.8623 H   0  0  0  0  0  0  0  0  0  0  0  0
   -0.5990    3.9194   -0.3633 H   0  0  0  0  0  0  0  0  0  0  0  0
    2.5414   -4.0370   -2.0313 H   0  0  0  0  0  0  0  0  0  0  0  0
    2.3092   -4.4831   -0.3435 H   0  0  0  0  0  0  0  0  0  0  0  0
    3.5579    2.9770    2.5782 H   0  0  0  0  0  0  0  0  0  0  0  0
    5.3013    3.1310    2.3053 H   0  0  0  0  0  0  0  0  0  0  0  0
    4.1796    3.5338    1.0069 H   0  0  0  0  0  0  0  0  0  0  0  0
    5.3112    0.0220   -0.8296 H   0  0  0  0  0  0  0  0  0  0  0  0
    6.3922    1.3018   -0.2502 H   0  0  0  0  0  0  0  0  0  0  0  0
    4.9035    1.7310   -1.1026 H   0  0  0  0  0  0  0  0  0  0  0  0
    6.4471    0.4904    2.6018 H   0  0  0  0  0  0  0  0  0  0  0  0
    5.5363   -0.9706    2.1730 H   0  0  0  0  0  0  0  0  0  0  0  0
    4.9606    0.0815    3.4799 H   0  0  0  0  0  0  0  0  0  0  0  0
   -1.2609    3.6763   -2.7747 H   0  0  0  0  0  0  0  0  0  0  0  0
    0.2610    4.4261   -3.2623 H   0  0  0  0  0  0  0  0  0  0  0  0
    0.3962   -5.1346   -2.6390 H   0  0  0  0  0  0  0  0  0  0  0  0
    0.1026   -5.5339   -0.9493 H   0  0  0  0  0  0  0  0  0  0  0  0
   -1.5389   -0.2369   -0.6676 H   0  0  0  0  0  0  0  0  0  0  0  0
   -0.3712    6.5160   -2.0337 H   0  0  0  0  0  0  0  0  0  0  0  0
   -1.5783    6.0840   -3.2570 H   0  0  0  0  0  0  0  0  0  0  0  0
   -1.9013    5.7611   -1.5449 H   0  0  0  0  0  0  0  0  0  0  0  0
    2.4347   -6.5872   -2.6271 H   0  0  0  0  0  0  0  0  0  0  0  0
    0.9768   -7.4882   -2.1733 H   0  0  0  0  0  0  0  0  0  0  0  0
    2.1319   -6.9873   -0.9252 H   0  0  0  0  0  0  0  0  0  0  0  0
   -2.1316   -0.7273    2.3147 H   0  0  0  0  0  0  0  0  0  0  0  0
   -3.4065    0.7535   -0.9199 H   0  0  0  0  0  0  0  0  0  0  0  0
   -4.4926   -1.3812    2.6904 H   0  0  0  0  0  0  0  0  0  0  0  0
   -5.7653    0.9990   -1.4747 H   0  0  0  0  0  0  0  0  0  0  0  0
   -6.8716   -1.0974    2.1088 H   0  0  0  0  0  0  0  0  0  0  0  0
   -7.5162    0.0891    0.0278 H   0  0  0  0  0  0  0  0  0  0  0  0
  1  2  1  0  0  0  0
  1 13  1  0  0  0  0
  1 14  1  0  0  0  0
  1 15  1  0  0  0  0
  2  4  1  0  0  0  0
  3 10  2  0  0  0  0
  4  5  1  0  0  0  0
  4  6  1  0  0  0  0
  4 28  1  0  0  0  0
  5  7  1  0  0  0  0
  5 10  1  0  0  0  0
  5 29  1  0  0  0  0
  6  8  1  0  0  0  0
  6 30  1  0  0  0  0
  6 31  1  0  0  0  0
  7  9  1  0  0  0  0
  7 32  1  0  0  0  0
  7 33  1  0  0  0  0
  8 11  1  0  0  0  0
  8 34  1  0  0  0  0
  8 35  1  0  0  0  0
  9 12  1  0  0  0  0
  9 36  1  0  0  0  0
  9 37  1  0  0  0  0
 10 18  1  0  0  0  0
 11 16  1  0  0  0  0
 11 38  1  0  0  0  0
 11 39  1  0  0  0  0
 12 17  1  0  0  0  0
 12 40  1  0  0  0  0
 12 41  1  0  0  0  0
 13 42  1  0  0  0  0
 13 43  1  0  0  0  0
 13 44  1  0  0  0  0
 14 45  1  0  0  0  0
 14 46  1  0  0  0  0
 14 47  1  0  0  0  0
 15 48  1  0  0  0  0
 15 49  1  0  0  0  0
 15 50  1  0  0  0  0
 16 19  1  0  0  0  0
 16 51  1  0  0  0  0
 16 52  1  0  0  0  0
 17 20  1  0  0  0  0
 17 53  1  0  0  0  0
 17 54  1  0  0  0  0
 18 21  2  0  0  0  0
 18 55  1  0  0  0  0
 19 56  1  0  0  0  0
 19 57  1  0  0  0  0
 19 58  1  0  0  0  0
 20 59  1  0  0  0  0
 20 60  1  0  0  0  0
 20 61  1  0  0  0  0
 21 22  1  0  0  0  0
 21 62  1  0  0  0  0
 22 23  2  0  0  0  0
 22 24  1  0  0  0  0
 23 25  1  0  0  0  0
 23 63  1  0  0  0  0
 24 26  2  0  0  0  0
 24 64  1  0  0  0  0
 25 27  2  0  0  0  0
 25 65  1  0  0  0  0
 26 27  1  0  0  0  0
 26 66  1  0  0  0  0
 27 67  1  0  0  0  0
M  END
> <PUBCHEM_COMPOUND_CID>
582881

> <PUBCHEM_CONFORMER_RMSD>
1.2

> <PUBCHEM_CONFORMER_DIVERSEORDER>
1
42
39
80
52
30
38
48
70
3
57
63
59
65
4
68
66
60
29
43
5
81
28
2
37
6
85
67
53
55
33
56
7
45
92
49
44
78
23
27
94
8
88
76
20
51
24
47
32
75
89
69
62
82
77
71
84
9
90
15
21
26
12
11
40
22
10
91
74
25
83
36
35
41
17
34
13
64
16
79
61
31
93
14
19
86
18
87
58
46
54
50
73
72

> <PUBCHEM_MMFF94_PARTIAL_CHARGES>
24
1 0.54
10 0.49
13 -0.08
14 -0.08
15 -0.08
18 -0.14
2 -0.58
21 -0.18
22 0.03
23 -0.15
24 -0.15
25 -0.15
26 -0.15
27 -0.15
3 -0.57
4 0.28
5 0.06
55 0.15
62 0.15
63 0.15
64 0.15
65 0.15
66 0.15
67 0.15

> <PUBCHEM_EFFECTIVE_ROTOR_COUNT>
14

> <PUBCHEM_PHARMACOPHORE_FEATURES>
6
1 19 hydrophobe
1 20 hydrophobe
1 3 acceptor
4 6 8 11 16 hydrophobe
5 5 7 9 12 17 hydrophobe
6 22 23 24 25 26 27 rings

> <PUBCHEM_HEAVY_ATOM_COUNT>
27

> <PUBCHEM_ATOM_DEF_STEREO_COUNT>
0

> <PUBCHEM_ATOM_UDEF_STEREO_COUNT>
2

> <PUBCHEM_BOND_DEF_STEREO_COUNT>
0

> <PUBCHEM_BOND_UDEF_STEREO_COUNT>
1

> <PUBCHEM_ISOTOPIC_ATOM_COUNT>
0

> <PUBCHEM_COMPONENT_COUNT>
1

> <PUBCHEM_CACTVS_TAUTO_COUNT>
2

> <PUBCHEM_CONFORMER_ID>
0008E4E100000001

> <PUBCHEM_MMFF94_ENERGY>
43.5956

> <PUBCHEM_FEATURE_SELFOVERLAP>
30.446

> <PUBCHEM_SHAPE_FINGERPRINT>
10940486 97 17977657611945455492
11297750 10 17978501267364589879
11719270 70 18333731299504244163
12166972 35 18269552741793925745
12293681 25 17616267209023010894
12608794 3 17972632946822521560
12788726 201 17846498149753051320
13955234 65 18187074105059468835
15420108 30 17834397813719973156
15775530 1 17979919642049466604
17909252 39 18193548093884461054
17980427 23 18126009265066482135
18365409 1 17753053791565346951
19319366 153 17894914010215492227
1979834 28 18409721846834673649
21033648 29 17970073236255081832
21049683 271 18119785118953026958
22149856 69 17972568071885393979
23559900 14 18339342124826583251
255183 313 18192173545952714440
8509985 295 17561087960147891224

> <PUBCHEM_SHAPE_MULTIPOLES>
562.12
12.07
7.84
2.41
13.81
7.83
-0.17
-2.84
9.03
-4.51
-11.1
-0.84
-0.9
3.37

> <PUBCHEM_SHAPE_SELFOVERLAP>
1080.366

> <PUBCHEM_SHAPE_VOLUME>
343.8

> <PUBCHEM_COORDINATE_TYPE>
2
5
10

$$$$

