47205228
  -OEChem-06241222583D

 38 39  0     0  0  0  0  0  0999 V2000
    2.6163    1.4585   -1.2609 O   0  0  0  0  0  0  0  0  0  0  0  0
    2.3941    0.6702    0.9116 N   0  0  0  0  0  0  0  0  0  0  0  0
    1.1868   -2.2498    1.0846 N   0  0  0  0  0  0  0  0  0  0  0  0
    0.4003   -3.1650    0.4928 N   0  0  0  0  0  0  0  0  0  0  0  0
    0.2196    3.1129   -0.3556 C   0  0  0  0  0  0  0  0  0  0  0  0
   -0.7567    1.9779   -0.1847 C   0  0  0  0  0  0  0  0  0  0  0  0
    1.5260    2.8515    0.3918 C   0  0  0  0  0  0  0  0  0  0  0  0
   -2.5679   -0.1206    0.1281 C   0  0  0  0  0  0  0  0  0  0  0  0
   -0.7565    0.9159   -1.0890 C   0  0  0  0  0  0  0  0  0  0  0  0
   -1.6625    1.9908    0.8760 C   0  0  0  0  0  0  0  0  0  0  0  0
    2.2359    1.6037   -0.1023 C   0  0  0  0  0  0  0  0  0  0  0  0
   -1.6621   -0.1333   -0.9326 C   0  0  0  0  0  0  0  0  0  0  0  0
   -2.5682    0.9415    1.0323 C   0  0  0  0  0  0  0  0  0  0  0  0
   -3.5365   -1.2426    0.2945 C   0  0  0  0  0  0  0  0  0  0  0  0
    3.0410   -0.6029    0.6979 C   0  0  0  0  0  0  0  0  0  0  0  0
    2.0738   -1.6543    0.2365 C   0  0  0  0  0  0  0  0  0  0  0  0
   -4.8472   -0.9929   -0.4472 C   0  0  0  0  0  0  0  0  0  0  0  0
    1.8523   -2.2195   -0.9957 C   0  0  0  0  0  0  0  0  0  0  0  0
    0.8114   -3.1419   -0.7778 C   0  0  0  0  0  0  0  0  0  0  0  0
   -0.2298    4.0476    0.0017 H   0  0  0  0  0  0  0  0  0  0  0  0
    0.4184    3.2639   -1.4245 H   0  0  0  0  0  0  0  0  0  0  0  0
    1.3345    2.7939    1.4697 H   0  0  0  0  0  0  0  0  0  0  0  0
    2.2108    3.6942    0.2402 H   0  0  0  0  0  0  0  0  0  0  0  0
   -0.0642    0.8952   -1.9261 H   0  0  0  0  0  0  0  0  0  0  0  0
   -1.6714    2.8122    1.5875 H   0  0  0  0  0  0  0  0  0  0  0  0
   -1.6549   -0.9528   -1.6464 H   0  0  0  0  0  0  0  0  0  0  0  0
   -3.2698    0.9638    1.8619 H   0  0  0  0  0  0  0  0  0  0  0  0
   -3.0890   -2.1789   -0.0619 H   0  0  0  0  0  0  0  0  0  0  0  0
   -3.7456   -1.4017    1.3598 H   0  0  0  0  0  0  0  0  0  0  0  0
    3.8418   -0.4815   -0.0401 H   0  0  0  0  0  0  0  0  0  0  0  0
    3.4996   -0.9025    1.6464 H   0  0  0  0  0  0  0  0  0  0  0  0
    2.0265    0.8603    1.8390 H   0  0  0  0  0  0  0  0  0  0  0  0
   -5.3423   -0.0866   -0.0824 H   0  0  0  0  0  0  0  0  0  0  0  0
   -5.5300   -1.8358   -0.3016 H   0  0  0  0  0  0  0  0  0  0  0  0
   -4.6772   -0.8743   -1.5227 H   0  0  0  0  0  0  0  0  0  0  0  0
    2.3670   -1.9955   -1.9185 H   0  0  0  0  0  0  0  0  0  0  0  0
    1.0618   -2.0798    2.0748 H   0  0  0  0  0  0  0  0  0  0  0  0
    0.3345   -3.7972   -1.4924 H   0  0  0  0  0  0  0  0  0  0  0  0
  1 11  2  0  0  0  0
  2 11  1  0  0  0  0
  2 15  1  0  0  0  0
  2 32  1  0  0  0  0
  3  4  1  0  0  0  0
  3 16  1  0  0  0  0
  3 37  1  0  0  0  0
  4 19  2  0  0  0  0
  5  6  1  0  0  0  0
  5  7  1  0  0  0  0
  5 20  1  0  0  0  0
  5 21  1  0  0  0  0
  6  9  2  0  0  0  0
  6 10  1  0  0  0  0
  7 11  1  0  0  0  0
  7 22  1  0  0  0  0
  7 23  1  0  0  0  0
  8 12  2  0  0  0  0
  8 13  1  0  0  0  0
  8 14  1  0  0  0  0
  9 12  1  0  0  0  0
  9 24  1  0  0  0  0
 10 13  2  0  0  0  0
 10 25  1  0  0  0  0
 12 26  1  0  0  0  0
 13 27  1  0  0  0  0
 14 17  1  0  0  0  0
 14 28  1  0  0  0  0
 14 29  1  0  0  0  0
 15 16  1  0  0  0  0
 15 30  1  0  0  0  0
 15 31  1  0  0  0  0
 16 18  2  0  0  0  0
 17 33  1  0  0  0  0
 17 34  1  0  0  0  0
 17 35  1  0  0  0  0
 18 19  1  0  0  0  0
 18 36  1  0  0  0  0
 19 38  1  0  0  0  0
M  END
> <PUBCHEM_COMPOUND_CID>
47205228

> <PUBCHEM_CONFORMER_RMSD>
0.8

> <PUBCHEM_CONFORMER_DIVERSEORDER>
1
15
134
170
36
90
111
71
156
101
50
67
120
60
19
48
142
169
130
174
104
30
10
183
164
179
24
128
177
2
41
125
8
136
114
140
147
181
84
83
139
133
165
4
5
35
80
100
145
7
131
98
13
46
28
29
105
82
143
66
116
180
118
81
33
121
135
56
39
22
113
16
3
182
167
93
37
172
99
45
32
18
27
155
178
70
6
9
42
57
158
162
88
65
171
58
107
73
89
126
163
54
47
77
74
175
68
112
17
159
94
122
12
64
106
157
87
160
149
91
59
110
146
11
63
85
23
20
95
69
52
124
102
44
115
138
97
86
168
62
25
14
92
166
148
96
153
21
55
51
53
109
108
173
151
75
132
79
72
161
49
141
43
144
129
103
117
154
26
78
176
61
76
119
137
152
127
123
38
34
150
40
31

> <PUBCHEM_MMFF94_PARTIAL_CHARGES>
26
1 -0.57
10 -0.15
11 0.57
12 -0.15
13 -0.15
14 0.14
15 0.48
16 -0.33
18 -0.15
19 0.14
2 -0.73
24 0.15
25 0.15
26 0.15
27 0.15
3 0.3
32 0.37
36 0.15
37 0.27
38 0.15
4 -0.71
5 0.14
6 -0.14
7 0.06
8 -0.14
9 -0.15

> <PUBCHEM_EFFECTIVE_ROTOR_COUNT>
7

> <PUBCHEM_PHARMACOPHORE_FEATURES>
7
1 1 acceptor
1 17 hydrophobe
1 2 donor
1 3 donor
1 4 acceptor
5 3 4 16 18 19 rings
6 6 8 9 10 12 13 rings

> <PUBCHEM_HEAVY_ATOM_COUNT>
19

> <PUBCHEM_ATOM_DEF_STEREO_COUNT>
0

> <PUBCHEM_ATOM_UDEF_STEREO_COUNT>
0

> <PUBCHEM_BOND_DEF_STEREO_COUNT>
0

> <PUBCHEM_BOND_UDEF_STEREO_COUNT>
0

> <PUBCHEM_ISOTOPIC_ATOM_COUNT>
0

> <PUBCHEM_COMPONENT_COUNT>
1

> <PUBCHEM_CACTVS_TAUTO_COUNT>
4

> <PUBCHEM_CONFORMER_ID>
02D04B6C00000001

> <PUBCHEM_MMFF94_ENERGY>
25.6305

> <PUBCHEM_FEATURE_SELFOVERLAP>
35.52

> <PUBCHEM_SHAPE_FINGERPRINT>
1100329 8 17905332823243661312
12553582 1 18051125088399745875
12596599 1 17824527797951921067
13140716 1 18193289691841388192
14178342 30 18263091066285957040
14251705 54 18411140276621200787
14251711 518 17834962249198744210
14251717 144 18339929221038357919
14251757 5 16605456581352693614
17492 54 18129367225312548780
20645477 70 18270408174824709925
21197605 99 17548124538327844411
21421861 104 18263622049324795081
23184049 29 18122906688002685239
238 59 18268701732161177955
2803657 2 17832742009121189942
44154327 71 18339925896343378247
484985 159 14681379325361180082
6287921 2 18113889485595571159
6443956 14 18413109468061835853
8199 65 18339925913549322296
8272917 22 18338513046040959405

> <PUBCHEM_SHAPE_MULTIPOLES>
370.2
5.67
4.14
1.12
5.17
0.58
-0.06
1.85
0.28
-2.12
-0.14
-0.15
0.05
-0.33

> <PUBCHEM_SHAPE_SELFOVERLAP>
771.327

> <PUBCHEM_SHAPE_VOLUME>
210.1

> <PUBCHEM_COORDINATE_TYPE>
2
5
10

$$$$

