11868
  -OEChem-06261206133D

 22 22  0     0  0  0  0  0  0999 V2000
    1.8889   -0.6253   -0.0895 S   0  0  0  0  0  0  0  0  0  0  0  0
    2.4968   -0.2794    1.3871 O   0  0  0  0  0  0  0  0  0  0  0  0
    1.8710   -2.0743   -0.2149 O   0  0  0  0  0  0  0  0  0  0  0  0
    2.5784    0.1984   -1.0686 O   0  0  0  0  0  0  0  0  0  0  0  0
    0.2297   -0.0709   -0.0405 C   0  0  0  0  0  0  0  0  0  0  0  0
   -0.0761    1.2897   -0.0053 C   0  0  0  0  0  0  0  0  0  0  0  0
   -2.1270   -0.6014    0.0017 C   0  0  0  0  0  0  0  0  0  0  0  0
   -0.7958   -1.0165   -0.0371 C   0  0  0  0  0  0  0  0  0  0  0  0
   -1.4072    1.7047    0.0336 C   0  0  0  0  0  0  0  0  0  0  0  0
   -2.4326    0.7592    0.0371 C   0  0  0  0  0  0  0  0  0  0  0  0
    0.9979    2.3279   -0.0066 C   0  0  0  0  0  0  0  0  0  0  0  0
   -3.2239   -1.6121    0.0030 C   0  0  0  0  0  0  0  0  0  0  0  0
   -0.5806   -2.0812   -0.0602 H   0  0  0  0  0  0  0  0  0  0  0  0
   -1.6634    2.7606    0.0600 H   0  0  0  0  0  0  0  0  0  0  0  0
   -3.4654    1.0957    0.0687 H   0  0  0  0  0  0  0  0  0  0  0  0
    1.7764    2.1187    0.7317 H   0  0  0  0  0  0  0  0  0  0  0  0
    1.4359    2.4338   -1.0036 H   0  0  0  0  0  0  0  0  0  0  0  0
    0.5918    3.3101    0.2644 H   0  0  0  0  0  0  0  0  0  0  0  0
   -2.9720   -2.4633   -0.6387 H   0  0  0  0  0  0  0  0  0  0  0  0
   -3.3982   -1.9759    1.0205 H   0  0  0  0  0  0  0  0  0  0  0  0
   -4.1585   -1.1881   -0.3795 H   0  0  0  0  0  0  0  0  0  0  0  0
    2.0502   -0.7270    2.1438 H   0  0  0  0  0  0  0  0  0  0  0  0
  1  2  1  0  0  0  0
  1  3  2  0  0  0  0
  1  4  2  0  0  0  0
  1  5  1  0  0  0  0
  2 22  1  0  0  0  0
  5  6  2  0  0  0  0
  5  8  1  0  0  0  0
  6  9  1  0  0  0  0
  6 11  1  0  0  0  0
  7  8  2  0  0  0  0
  7 10  1  0  0  0  0
  7 12  1  0  0  0  0
  8 13  1  0  0  0  0
  9 10  2  0  0  0  0
  9 14  1  0  0  0  0
 10 15  1  0  0  0  0
 11 16  1  0  0  0  0
 11 17  1  0  0  0  0
 11 18  1  0  0  0  0
 12 19  1  0  0  0  0
 12 20  1  0  0  0  0
 12 21  1  0  0  0  0
M  END
> <PUBCHEM_COMPOUND_CID>
11868

> <PUBCHEM_CONFORMER_RMSD>
0.4

> <PUBCHEM_CONFORMER_DIVERSEORDER>
1
2

> <PUBCHEM_MMFF94_PARTIAL_CHARGES>
16
1 1.49
10 -0.15
11 0.14
12 0.14
13 0.15
14 0.15
15 0.15
2 -0.68
22 0.5
3 -0.65
4 -0.65
5 -0.01
6 -0.14
7 -0.14
8 -0.15
9 -0.15

> <PUBCHEM_EFFECTIVE_ROTOR_COUNT>
1

> <PUBCHEM_PHARMACOPHORE_FEATURES>
5
1 2 acceptor
1 3 acceptor
1 4 acceptor
4 1 2 3 4 anion
6 5 6 7 8 9 10 rings

> <PUBCHEM_HEAVY_ATOM_COUNT>
12

> <PUBCHEM_ATOM_DEF_STEREO_COUNT>
0

> <PUBCHEM_ATOM_UDEF_STEREO_COUNT>
0

> <PUBCHEM_BOND_DEF_STEREO_COUNT>
0

> <PUBCHEM_BOND_UDEF_STEREO_COUNT>
0

> <PUBCHEM_ISOTOPIC_ATOM_COUNT>
0

> <PUBCHEM_COMPONENT_COUNT>
1

> <PUBCHEM_CACTVS_TAUTO_COUNT>
1

> <PUBCHEM_CONFORMER_ID>
00002E5C00000001

> <PUBCHEM_MMFF94_ENERGY>
23.2236

> <PUBCHEM_FEATURE_SELFOVERLAP>
25.428

> <PUBCHEM_SHAPE_FINGERPRINT>
10857977 72 18335712640784048675
11206711 2 18413105052708530525
12382932 28 18337118972074938714
12423570 1 14814165334618406728
12524768 44 18116714225535287927
12716758 59 18122348148975389145
12932764 1 17530969093909829407
14128692 85 18336817607157648469
161256 15 18266175037403441885
16945 1 18409730677224162949
17990270 104 18410572864170274634
193761 8 18410291389631862101
20201158 50 18340489976084188355
20645477 70 18122350082339108623
20653091 64 18271528589362223905
20871998 184 18187367674615975567
20871998 22 18408317774633498543
21040471 1 17977947117809428069
21501502 16 18339922623952857921
21501925 9 18265063444254026499
22802520 49 17897994983208227166
23552423 10 18270112401501197749
23559900 14 17901669599099391390
241688 4 18194398016198346784
2748010 2 18263926712144348767
369184 2 17096100197883294995
5084963 1 17967803916947931411
528862 383 18052827944195886745
7364860 26 18117273662126631984
81228 2 18266745864427208417

> <PUBCHEM_SHAPE_MULTIPOLES>
233.2
4.15
2.2
0.8
0.92
0.54
-0.09
-1.68
-0.05
-0.07
0.05
-0.48
-0.04
-0.05

> <PUBCHEM_SHAPE_SELFOVERLAP>
472.187

> <PUBCHEM_SHAPE_VOLUME>
137.4

> <PUBCHEM_COORDINATE_TYPE>
2
5
10

$$$$

