9241
  -OEChem-06261203322D

 29 27  0     0  0  0  0  0  0999 V2000
    4.4487   -0.3408    0.0000 Bi  0  0  0  0  0  0  0  0  0  0  0  0
    3.2278    1.2769    0.0000 O   0  0  0  0  0  0  0  0  0  0  0  0
    6.1534   -1.3854    0.0000 O   0  0  0  0  0  0  0  0  0  0  0  0
    2.9135   -1.5840    0.0000 O   0  0  0  0  0  0  0  0  0  0  0  0
    4.7075    0.6251    0.0000 N   0  0  0  0  0  0  0  0  0  0  0  0
    3.6345    2.1904    0.0000 C   0  0  0  0  0  0  0  0  0  0  0  0
    6.9305   -0.7561    0.0000 C   0  0  0  0  0  0  0  0  0  0  0  0
    2.0000   -1.1772    0.0000 C   0  0  0  0  0  0  0  0  0  0  0  0
    4.6290    2.0859    0.0000 C   0  0  0  0  0  0  0  0  0  0  0  0
    6.5722    0.1775    0.0000 C   0  0  0  0  0  0  0  0  0  0  0  0
    2.1045   -0.1827    0.0000 C   0  0  0  0  0  0  0  0  0  0  0  0
    3.8363   -0.4378    0.0000 H   0  0  0  0  0  0  0  0  0  0  0  0
    4.2882   -0.9397    0.0000 H   0  0  0  0  0  0  0  0  0  0  0  0
    4.9305   -0.7310    0.0000 H   0  0  0  0  0  0  0  0  0  0  0  0
    2.6213    1.1480    0.0000 H   0  0  0  0  0  0  0  0  0  0  0  0
    6.1858   -2.0046    0.0000 H   0  0  0  0  0  0  0  0  0  0  0  0
    3.0425   -2.1904    0.0000 H   0  0  0  0  0  0  0  0  0  0  0  0
    3.7634    2.7969    0.0000 H   0  0  0  0  0  0  0  0  0  0  0  0
    3.0448    2.3820    0.0000 H   0  0  0  0  0  0  0  0  0  0  0  0
    7.2682   -1.2761    0.0000 H   0  0  0  0  0  0  0  0  0  0  0  0
    7.4830   -0.4747    0.0000 H   0  0  0  0  0  0  0  0  0  0  0  0
    1.3935   -1.0483    0.0000 H   0  0  0  0  0  0  0  0  0  0  0  0
    1.8084   -1.7669    0.0000 H   0  0  0  0  0  0  0  0  0  0  0  0
    4.6612    2.7050    0.0000 H   0  0  0  0  0  0  0  0  0  0  0  0
    5.2490    2.0864    0.0000 H   0  0  0  0  0  0  0  0  0  0  0  0
    6.5938    0.7971    0.0000 H   0  0  0  0  0  0  0  0  0  0  0  0
    7.1837    0.2798    0.0000 H   0  0  0  0  0  0  0  0  0  0  0  0
    2.0023    0.4288    0.0000 H   0  0  0  0  0  0  0  0  0  0  0  0
    1.4848   -0.2016    0.0000 H   0  0  0  0  0  0  0  0  0  0  0  0
  1 12  1  0  0  0  0
  1 13  1  0  0  0  0
  1 14  1  0  0  0  0
  2  6  1  0  0  0  0
  2 15  1  0  0  0  0
  3  7  1  0  0  0  0
  3 16  1  0  0  0  0
  4  8  1  0  0  0  0
  4 17  1  0  0  0  0
  5  9  1  0  0  0  0
  5 10  1  0  0  0  0
  5 11  1  0  0  0  0
  6  9  1  0  0  0  0
  6 18  1  0  0  0  0
  6 19  1  0  0  0  0
  7 10  1  0  0  0  0
  7 20  1  0  0  0  0
  7 21  1  0  0  0  0
  8 11  1  0  0  0  0
  8 22  1  0  0  0  0
  8 23  1  0  0  0  0
  9 24  1  0  0  0  0
  9 25  1  0  0  0  0
 10 26  1  0  0  0  0
 10 27  1  0  0  0  0
 11 28  1  0  0  0  0
 11 29  1  0  0  0  0
M  END
> <PUBCHEM_COMPOUND_CID>
9241

> <PUBCHEM_COMPOUND_CANONICALIZED>
1

> <PUBCHEM_CACTVS_COMPLEXITY>
60.6

> <PUBCHEM_CACTVS_HBOND_ACCEPTOR>
4

> <PUBCHEM_CACTVS_HBOND_DONOR>
3

> <PUBCHEM_CACTVS_ROTATABLE_BOND>
0

> <PUBCHEM_CACTVS_SUBSKEYS>
AAADceBiMAAAAAAAAAAAACAAAAAAAAAAAAAAAAAAAAAWLAAAAAAAHgAACAAAAADhgAYAAAMAAgAAAAAAAAAAAAAAAAAAAAAIAAACEAAAAAAAAAAAAACQAAAAAAAAAAAAAAAAAAAAAAAAAAAAAAAAAAAAAA==

> <PUBCHEM_IUPAC_OPENEYE_NAME>
2-[bis(2-hydroxyethyl)amino]ethanol; bismuthane

> <PUBCHEM_IUPAC_CAS_NAME>
2-[bis(2-hydroxyethyl)amino]ethanol; bismuthine

> <PUBCHEM_IUPAC_NAME>
2-[bis(2-hydroxyethyl)amino]ethanol; bismuthane

> <PUBCHEM_IUPAC_SYSTEMATIC_NAME>
2-[bis(2-hydroxyethyl)amino]ethanol; bismuthane

> <PUBCHEM_IUPAC_TRADITIONAL_NAME>
2-[bis(2-hydroxyethyl)amino]ethanol; bismuthine

> <PUBCHEM_IUPAC_INCHI>
InChI=1S/C6H15NO3.Bi.3H/c8-4-1-7(2-5-9)3-6-10;;;;/h8-10H,1-6H2;;;;

> <PUBCHEM_IUPAC_INCHIKEY>
XNPHUHJMDASBQF-UHFFFAOYSA-N

> <PUBCHEM_EXACT_MASS>
361.109067

> <PUBCHEM_MOLECULAR_FORMULA>
C6H18BiNO3

> <PUBCHEM_MOLECULAR_WEIGHT>
361.19242

> <PUBCHEM_OPENEYE_CAN_SMILES>
C(CO)N(CCO)CCO.[BiH3]

> <PUBCHEM_OPENEYE_ISO_SMILES>
C(CO)N(CCO)CCO.[BiH3]

> <PUBCHEM_CACTVS_TPSA>
63.9

> <PUBCHEM_MONOISOTOPIC_WEIGHT>
361.109067

> <PUBCHEM_TOTAL_CHARGE>
0

> <PUBCHEM_HEAVY_ATOM_COUNT>
11

> <PUBCHEM_ATOM_DEF_STEREO_COUNT>
0

> <PUBCHEM_ATOM_UDEF_STEREO_COUNT>
0

> <PUBCHEM_BOND_DEF_STEREO_COUNT>
0

> <PUBCHEM_BOND_UDEF_STEREO_COUNT>
0

> <PUBCHEM_ISOTOPIC_ATOM_COUNT>
0

> <PUBCHEM_COMPONENT_COUNT>
2

> <PUBCHEM_CACTVS_TAUTO_COUNT>
1

> <PUBCHEM_NONSTANDARDBOND>
1  2  6
1  3  6
1  4  6

> <PUBCHEM_COORDINATE_TYPE>
1
5
255

> <PUBCHEM_BONDANNOTATIONS>
1  2  4
1  3  4
1  4  4

$$$$

