8456
  -OEChem-06261202512D

 29 29  0     0  0  0  0  0  0999 V2000
    2.5369    0.5000    0.0000 O   0  0  0  0  0  0  0  0  0  0  0  0
    6.0010   -1.5000    0.0000 O   0  0  0  0  0  0  0  0  0  0  0  0
    4.2690    1.5000    0.0000 C   0  0  0  0  0  0  0  0  0  0  0  0
    4.2690    0.5000    0.0000 C   0  0  0  0  0  0  0  0  0  0  0  0
    4.2690    2.5000    0.0000 C   0  0  0  0  0  0  0  0  0  0  0  0
    5.2690    1.5000    0.0000 C   0  0  0  0  0  0  0  0  0  0  0  0
    3.2690    1.5000    0.0000 C   0  0  0  0  0  0  0  0  0  0  0  0
    3.4030    0.0000    0.0000 C   0  0  0  0  0  0  0  0  0  0  0  0
    5.1350    0.0000    0.0000 C   0  0  0  0  0  0  0  0  0  0  0  0
    5.1350   -1.0000    0.0000 C   0  0  0  0  0  0  0  0  0  0  0  0
    3.4030   -1.0000    0.0000 C   0  0  0  0  0  0  0  0  0  0  0  0
    4.2690   -1.5000    0.0000 C   0  0  0  0  0  0  0  0  0  0  0  0
    6.0010   -2.5000    0.0000 C   0  0  0  0  0  0  0  0  0  0  0  0
    4.8890    2.5000    0.0000 H   0  0  0  0  0  0  0  0  0  0  0  0
    4.2690    3.1200    0.0000 H   0  0  0  0  0  0  0  0  0  0  0  0
    3.6490    2.5000    0.0000 H   0  0  0  0  0  0  0  0  0  0  0  0
    5.2690    0.8800    0.0000 H   0  0  0  0  0  0  0  0  0  0  0  0
    5.8890    1.5000    0.0000 H   0  0  0  0  0  0  0  0  0  0  0  0
    5.2690    2.1200    0.0000 H   0  0  0  0  0  0  0  0  0  0  0  0
    3.2690    2.1200    0.0000 H   0  0  0  0  0  0  0  0  0  0  0  0
    2.6490    1.5000    0.0000 H   0  0  0  0  0  0  0  0  0  0  0  0
    3.2690    0.8800    0.0000 H   0  0  0  0  0  0  0  0  0  0  0  0
    5.6720    0.3100    0.0000 H   0  0  0  0  0  0  0  0  0  0  0  0
    2.8660   -1.3100    0.0000 H   0  0  0  0  0  0  0  0  0  0  0  0
    4.2690   -2.1200    0.0000 H   0  0  0  0  0  0  0  0  0  0  0  0
    2.0000    0.1900    0.0000 H   0  0  0  0  0  0  0  0  0  0  0  0
    5.3810   -2.5000    0.0000 H   0  0  0  0  0  0  0  0  0  0  0  0
    6.0010   -3.1200    0.0000 H   0  0  0  0  0  0  0  0  0  0  0  0
    6.6210   -2.5000    0.0000 H   0  0  0  0  0  0  0  0  0  0  0  0
  1  8  1  0  0  0  0
  1 26  1  0  0  0  0
  2 10  1  0  0  0  0
  2 13  1  0  0  0  0
  3  4  1  0  0  0  0
  3  5  1  0  0  0  0
  3  6  1  0  0  0  0
  3  7  1  0  0  0  0
  4  8  2  0  0  0  0
  4  9  1  0  0  0  0
  5 14  1  0  0  0  0
  5 15  1  0  0  0  0
  5 16  1  0  0  0  0
  6 17  1  0  0  0  0
  6 18  1  0  0  0  0
  6 19  1  0  0  0  0
  7 20  1  0  0  0  0
  7 21  1  0  0  0  0
  7 22  1  0  0  0  0
  8 11  1  0  0  0  0
  9 10  2  0  0  0  0
  9 23  1  0  0  0  0
 10 12  1  0  0  0  0
 11 12  2  0  0  0  0
 11 24  1  0  0  0  0
 12 25  1  0  0  0  0
 13 27  1  0  0  0  0
 13 28  1  0  0  0  0
 13 29  1  0  0  0  0
M  END
> <PUBCHEM_COMPOUND_CID>
8456

> <PUBCHEM_COMPOUND_CANONICALIZED>
1

> <PUBCHEM_CACTVS_COMPLEXITY>
160

> <PUBCHEM_CACTVS_HBOND_ACCEPTOR>
2

> <PUBCHEM_CACTVS_HBOND_DONOR>
1

> <PUBCHEM_CACTVS_ROTATABLE_BOND>
2

> <PUBCHEM_CACTVS_SUBSKEYS>
AAADceBwMAAAAAAAAAAAAAAAAAAAAAAAAAAwAAAAAAAAAAABAAAAGgAACAAADgSAmAIyBoAABgCAAiBCAAACCAAgIAAIiAAGCIgMJiKGMRqAcCAkwBEIuAfAwPAPgQABAAAIAAACAAIAABAAAAAAAAAAAA==

> <PUBCHEM_IUPAC_OPENEYE_NAME>
2-tert-butyl-4-methoxy-phenol

> <PUBCHEM_IUPAC_CAS_NAME>
2-tert-butyl-4-methoxyphenol

> <PUBCHEM_IUPAC_NAME>
2-tert-butyl-4-methoxyphenol

> <PUBCHEM_IUPAC_SYSTEMATIC_NAME>
2-tert-butyl-4-methoxy-phenol

> <PUBCHEM_IUPAC_TRADITIONAL_NAME>
2-tert-butyl-4-methoxy-phenol

> <PUBCHEM_IUPAC_INCHI>
InChI=1S/C11H16O2/c1-11(2,3)9-7-8(13-4)5-6-10(9)12/h5-7,12H,1-4H3

> <PUBCHEM_IUPAC_INCHIKEY>
MRBKEAMVRSLQPH-UHFFFAOYSA-N

> <PUBCHEM_XLOGP3>
3.2

> <PUBCHEM_EXACT_MASS>
180.11503

> <PUBCHEM_MOLECULAR_FORMULA>
C11H16O2

> <PUBCHEM_MOLECULAR_WEIGHT>
180.24354

> <PUBCHEM_OPENEYE_CAN_SMILES>
CC(C)(C)C1=C(C=CC(=C1)OC)O

> <PUBCHEM_OPENEYE_ISO_SMILES>
CC(C)(C)C1=C(C=CC(=C1)OC)O

> <PUBCHEM_CACTVS_TPSA>
29.5

> <PUBCHEM_MONOISOTOPIC_WEIGHT>
180.11503

> <PUBCHEM_TOTAL_CHARGE>
0

> <PUBCHEM_HEAVY_ATOM_COUNT>
13

> <PUBCHEM_ATOM_DEF_STEREO_COUNT>
0

> <PUBCHEM_ATOM_UDEF_STEREO_COUNT>
0

> <PUBCHEM_BOND_DEF_STEREO_COUNT>
0

> <PUBCHEM_BOND_UDEF_STEREO_COUNT>
0

> <PUBCHEM_ISOTOPIC_ATOM_COUNT>
0

> <PUBCHEM_COMPONENT_COUNT>
1

> <PUBCHEM_CACTVS_TAUTO_COUNT>
3

> <PUBCHEM_COORDINATE_TYPE>
1
5
255

> <PUBCHEM_BONDANNOTATIONS>
10  12  8
11  12  8
4  8  8
4  9  8
8  11  8
9  10  8

$$$$

