17396209
  -OEChem-06241222553D

 57 59  0     1  0  0  0  0  0999 V2000
    3.1175   -1.3145   -0.1811 O   0  0  0  0  0  0  0  0  0  0  0  0
    0.8427    0.0738    0.1993 O   0  0  0  0  0  0  0  0  0  0  0  0
   -0.3436    2.0011    0.5649 O   0  0  0  0  0  0  0  0  0  0  0  0
    4.4305    0.5953    0.0170 N   0  0  0  0  0  0  0  0  0  0  0  0
   -3.5426   -0.8072    0.7270 N   0  0  0  0  0  0  0  0  0  0  0  0
   -3.0144   -1.7066   -0.1207 N   0  0  0  0  0  0  0  0  0  0  0  0
    6.7258    0.9199   -0.8391 C   0  0  1  0  0  0  0  0  0  0  0  0
    5.7178   -0.0362   -0.1668 C   0  0  1  0  0  0  0  0  0  0  0  0
    8.1169    0.2725   -0.9325 C   0  0  0  0  0  0  0  0  0  0  0  0
    6.2347   -0.5404    1.1850 C   0  0  0  0  0  0  0  0  0  0  0  0
    8.6125   -0.2180    0.4242 C   0  0  0  0  0  0  0  0  0  0  0  0
    7.6161   -1.1742    1.0681 C   0  0  0  0  0  0  0  0  0  0  0  0
    6.2612    1.3438   -2.2362 C   0  0  0  0  0  0  0  0  0  0  0  0
    3.2344   -0.1046   -0.0065 C   0  0  0  0  0  0  0  0  0  0  0  0
    2.0478    0.8091    0.2139 C   0  0  0  0  0  0  0  0  0  0  0  0
   -1.5311   -0.0379    0.3619 C   0  0  0  0  0  0  0  0  0  0  0  0
   -2.6948    0.2122    1.0473 C   0  0  0  0  0  0  0  0  0  0  0  0
   -0.3204    0.7873    0.3892 C   0  0  0  0  0  0  0  0  0  0  0  0
   -1.7857   -1.2313   -0.3402 C   0  0  0  0  0  0  0  0  0  0  0  0
   -4.8951   -0.9927    1.1992 C   0  0  0  0  0  0  0  0  0  0  0  0
   -3.0734    1.3073    1.9617 C   0  0  0  0  0  0  0  0  0  0  0  0
   -5.8905   -0.3215    0.2919 C   0  0  0  0  0  0  0  0  0  0  0  0
   -0.8762   -1.9616   -1.2410 C   0  0  0  0  0  0  0  0  0  0  0  0
   -6.4406   -1.0235   -0.7807 C   0  0  0  0  0  0  0  0  0  0  0  0
   -6.2635    1.0026    0.5235 C   0  0  0  0  0  0  0  0  0  0  0  0
   -7.3634   -0.4016   -1.6217 C   0  0  0  0  0  0  0  0  0  0  0  0
   -7.1864    1.6245   -0.3176 C   0  0  0  0  0  0  0  0  0  0  0  0
   -7.7363    0.9223   -1.3901 C   0  0  0  0  0  0  0  0  0  0  0  0
    6.8115    1.8295   -0.2283 H   0  0  0  0  0  0  0  0  0  0  0  0
    5.5711   -0.9075   -0.8195 H   0  0  0  0  0  0  0  0  0  0  0  0
    8.0872   -0.5733   -1.6317 H   0  0  0  0  0  0  0  0  0  0  0  0
    8.8368    0.9931   -1.3387 H   0  0  0  0  0  0  0  0  0  0  0  0
    6.2772    0.2920    1.9002 H   0  0  0  0  0  0  0  0  0  0  0  0
    5.5360   -1.2728    1.6078 H   0  0  0  0  0  0  0  0  0  0  0  0
    9.5793   -0.7195    0.3037 H   0  0  0  0  0  0  0  0  0  0  0  0
    8.7779    0.6410    1.0860 H   0  0  0  0  0  0  0  0  0  0  0  0
    7.9738   -1.4650    2.0622 H   0  0  0  0  0  0  0  0  0  0  0  0
    7.5488   -2.0919    0.4711 H   0  0  0  0  0  0  0  0  0  0  0  0
    6.1257    0.4753   -2.8897 H   0  0  0  0  0  0  0  0  0  0  0  0
    5.3114    1.8863   -2.1920 H   0  0  0  0  0  0  0  0  0  0  0  0
    6.9965    2.0074   -2.7039 H   0  0  0  0  0  0  0  0  0  0  0  0
    4.4137    1.5884    0.2317 H   0  0  0  0  0  0  0  0  0  0  0  0
    2.1684    1.3048    1.1842 H   0  0  0  0  0  0  0  0  0  0  0  0
    2.0362    1.5582   -0.5865 H   0  0  0  0  0  0  0  0  0  0  0  0
   -5.0881   -2.0722    1.2477 H   0  0  0  0  0  0  0  0  0  0  0  0
   -4.9842   -0.6335    2.2285 H   0  0  0  0  0  0  0  0  0  0  0  0
   -2.1874    1.7278    2.4495 H   0  0  0  0  0  0  0  0  0  0  0  0
   -3.7346    0.9863    2.7699 H   0  0  0  0  0  0  0  0  0  0  0  0
   -3.5558    2.1186    1.4087 H   0  0  0  0  0  0  0  0  0  0  0  0
   -0.0847   -2.4564   -0.6689 H   0  0  0  0  0  0  0  0  0  0  0  0
   -1.4054   -2.7310   -1.8135 H   0  0  0  0  0  0  0  0  0  0  0  0
   -0.4094   -1.2811   -1.9605 H   0  0  0  0  0  0  0  0  0  0  0  0
   -6.1582   -2.0553   -0.9725 H   0  0  0  0  0  0  0  0  0  0  0  0
   -5.8631    1.5588    1.3650 H   0  0  0  0  0  0  0  0  0  0  0  0
   -7.7917   -0.9481   -2.4568 H   0  0  0  0  0  0  0  0  0  0  0  0
   -7.4807    2.6538   -0.1345 H   0  0  0  0  0  0  0  0  0  0  0  0
   -8.4557    1.4062   -2.0441 H   0  0  0  0  0  0  0  0  0  0  0  0
  1 14  2  0  0  0  0
  2 15  1  0  0  0  0
  2 18  1  0  0  0  0
  3 18  2  0  0  0  0
  4  8  1  0  0  0  0
  4 14  1  0  0  0  0
  4 42  1  0  0  0  0
  5  6  1  0  0  0  0
  5 17  1  0  0  0  0
  5 20  1  0  0  0  0
  6 19  2  0  0  0  0
  7  8  1  0  0  0  0
  7  9  1  0  0  0  0
  7 13  1  0  0  0  0
  7 29  1  0  0  0  0
  8 10  1  0  0  0  0
  8 30  1  0  0  0  0
  9 11  1  0  0  0  0
  9 31  1  0  0  0  0
  9 32  1  0  0  0  0
 10 12  1  0  0  0  0
 10 33  1  0  0  0  0
 10 34  1  0  0  0  0
 11 12  1  0  0  0  0
 11 35  1  0  0  0  0
 11 36  1  0  0  0  0
 12 37  1  0  0  0  0
 12 38  1  0  0  0  0
 13 39  1  0  0  0  0
 13 40  1  0  0  0  0
 13 41  1  0  0  0  0
 14 15  1  0  0  0  0
 15 43  1  0  0  0  0
 15 44  1  0  0  0  0
 16 17  2  0  0  0  0
 16 18  1  0  0  0  0
 16 19  1  0  0  0  0
 17 21  1  0  0  0  0
 19 23  1  0  0  0  0
 20 22  1  0  0  0  0
 20 45  1  0  0  0  0
 20 46  1  0  0  0  0
 21 47  1  0  0  0  0
 21 48  1  0  0  0  0
 21 49  1  0  0  0  0
 22 24  2  0  0  0  0
 22 25  1  0  0  0  0
 23 50  1  0  0  0  0
 23 51  1  0  0  0  0
 23 52  1  0  0  0  0
 24 26  1  0  0  0  0
 24 53  1  0  0  0  0
 25 27  2  0  0  0  0
 25 54  1  0  0  0  0
 26 28  2  0  0  0  0
 26 55  1  0  0  0  0
 27 28  1  0  0  0  0
 27 56  1  0  0  0  0
 28 57  1  0  0  0  0
M  END
> <PUBCHEM_COMPOUND_CID>
17396209

> <PUBCHEM_CONFORMER_RMSD>
1.4

> <PUBCHEM_CONFORMER_DIVERSEORDER>
1
26
53
35
79
43
27
59
41
42
80
36
57
20
3
49
11
65
39
74
76
37
70
4
69
54
89
21
15
72
44
23
83
51
85
77
29
60
56
34
81
84
30
91
46
88
64
82
63
31
10
5
73
48
28
50
87
47
12
55
90
86
9
58
7
62
68
40
33
38
93
75
67
14
19
52
2
61
8
32
92
45
24
17
18
16
71
78
25
6
13
22
66

> <PUBCHEM_MMFF94_PARTIAL_CHARGES>
28
1 -0.57
14 0.57
15 0.34
16 -0.09
17 -0.33
18 0.81
19 0.11
2 -0.43
20 0.4
21 0.18
22 -0.14
23 0.18
24 -0.15
25 -0.15
26 -0.15
27 -0.15
28 -0.15
3 -0.57
4 -0.73
42 0.37
5 0.31
53 0.15
54 0.15
55 0.15
56 0.15
57 0.15
6 -0.71
8 0.3

> <PUBCHEM_EFFECTIVE_ROTOR_COUNT>
9.2

> <PUBCHEM_PHARMACOPHORE_FEATURES>
7
1 1 acceptor
1 3 acceptor
1 4 donor
1 6 acceptor
5 5 6 16 17 19 rings
6 22 24 25 26 27 28 rings
6 7 8 9 10 11 12 rings

> <PUBCHEM_HEAVY_ATOM_COUNT>
28

> <PUBCHEM_ATOM_DEF_STEREO_COUNT>
0

> <PUBCHEM_ATOM_UDEF_STEREO_COUNT>
2

> <PUBCHEM_BOND_DEF_STEREO_COUNT>
0

> <PUBCHEM_BOND_UDEF_STEREO_COUNT>
0

> <PUBCHEM_ISOTOPIC_ATOM_COUNT>
0

> <PUBCHEM_COMPONENT_COUNT>
1

> <PUBCHEM_CACTVS_TAUTO_COUNT>
2

> <PUBCHEM_CONFORMER_ID>
010971F100000001

> <PUBCHEM_MMFF94_ENERGY>
44.0972

> <PUBCHEM_FEATURE_SELFOVERLAP>
35.52

> <PUBCHEM_SHAPE_FINGERPRINT>
10066227 112 17775567520535991517
10299344 5 18131349700685882562
106641 1 5039944165706766234
11135926 11 17385721405606889271
11181472 205 17846214522807321180
11315181 36 18408597046360435321
11719270 70 18409449207065243706
12082328 90 17418092088384707331
12166972 35 6555407626213316274
12236239 1 18201997707726260994
12838862 33 18187941585589602106
13885169 127 17346882260291657097
13914758 101 18060420239457853493
14251764 18 18333450954277635194
14251764 46 16660362580186203258
15131766 46 17485917542035063540
15183329 4 18272657857219674321
15276724 80 17417819460523701317
15461852 350 17240483593755802829
15849732 13 17822013094742343301
17093844 174 16200430248407635337
18608769 82 9583512127199942529
195137 175 18060415815694455333
21033648 29 15266778790140981236
21095123 145 10951758695151445761
22224240 67 16153428346580874542
23559900 14 17604436171976771273
23576562 1 18266181617741784997
335352 9 18334016072878181317
3383291 50 17240762852566656583
34797466 226 14045736020570211862
4017518 198 17168141230712661806
4093350 32 15482681199341201664
4098825 35 17274827969178538540
4325135 7 18342735222421033430
5283156 175 18272651264666193658
6009941 240 17561360678160616899
6371380 46 18335426733485764162
6691757 9 17385716963899067895

> <PUBCHEM_SHAPE_MULTIPOLES>
543.68
28.45
1.61
1.51
22.17
0.01
-0.2
3.37
-6.26
-0.72
-0.22
-0.49
0.24
-1.72

> <PUBCHEM_SHAPE_SELFOVERLAP>
1139.429

> <PUBCHEM_SHAPE_VOLUME>
306.9

> <PUBCHEM_COORDINATE_TYPE>
2
5
10

$$$$

