17396131
  -OEChem-06241222543D

 54 58  0     0  0  0  0  0  0999 V2000
    2.7281   -2.1580   -1.0513 S   0  0  0  0  0  0  0  0  0  0  0  0
    2.2998    2.8232    0.7869 O   0  0  0  0  0  0  0  0  0  0  0  0
   -5.1736    0.3144    0.0636 N   0  0  0  0  0  0  0  0  0  0  0  0
    1.9893    1.6689   -1.1975 N   0  0  0  0  0  0  0  0  0  0  0  0
    1.7379   -0.9193    0.9826 N   0  0  0  0  0  0  0  0  0  0  0  0
    5.0240    1.9795    0.3035 N   0  0  0  0  0  0  0  0  0  0  0  0
    5.1008   -0.8166    0.5097 N   0  0  0  0  0  0  0  0  0  0  0  0
   -6.3440   -0.5591    0.1459 C   0  0  0  0  0  0  0  0  0  0  0  0
   -5.4835    1.4475    0.9348 C   0  0  0  0  0  0  0  0  0  0  0  0
   -7.5062    0.4216    0.0909 C   0  0  0  0  0  0  0  0  0  0  0  0
   -6.9399    1.7411    0.6060 C   0  0  0  0  0  0  0  0  0  0  0  0
   -3.9456   -0.3643    0.4505 C   0  0  0  0  0  0  0  0  0  0  0  0
   -2.7247    0.3408   -0.0778 C   0  0  0  0  0  0  0  0  0  0  0  0
   -2.2101    0.0010   -1.3290 C   0  0  0  0  0  0  0  0  0  0  0  0
   -2.1080    1.3336    0.6837 C   0  0  0  0  0  0  0  0  0  0  0  0
   -0.4623    1.6466   -1.0570 C   0  0  0  0  0  0  0  0  0  0  0  0
   -1.0790    0.6539   -1.8186 C   0  0  0  0  0  0  0  0  0  0  0  0
   -0.9768    1.9864    0.1942 C   0  0  0  0  0  0  0  0  0  0  0  0
    0.7478    2.3437   -1.5803 C   0  0  0  0  0  0  0  0  0  0  0  0
    2.6533    1.9802   -0.0334 C   0  0  0  0  0  0  0  0  0  0  0  0
    3.9118    1.2254    0.1979 C   0  0  0  0  0  0  0  0  0  0  0  0
    3.9496   -0.1480    0.2990 C   0  0  0  0  0  0  0  0  0  0  0  0
    2.7833   -0.9841    0.1915 C   0  0  0  0  0  0  0  0  0  0  0  0
    1.1664   -2.6461   -0.5075 C   0  0  0  0  0  0  0  0  0  0  0  0
    0.8017   -1.8664    0.5944 C   0  0  0  0  0  0  0  0  0  0  0  0
    0.3246   -3.6468   -1.0190 C   0  0  0  0  0  0  0  0  0  0  0  0
   -0.4504   -2.0986    1.2039 C   0  0  0  0  0  0  0  0  0  0  0  0
   -0.9089   -3.8561   -0.3972 C   0  0  0  0  0  0  0  0  0  0  0  0
   -1.2934   -3.0932    0.6999 C   0  0  0  0  0  0  0  0  0  0  0  0
    6.1751    1.3110    0.5144 C   0  0  0  0  0  0  0  0  0  0  0  0
    6.2128   -0.0623    0.6154 C   0  0  0  0  0  0  0  0  0  0  0  0
   -6.3839   -1.2768   -0.6796 H   0  0  0  0  0  0  0  0  0  0  0  0
   -6.3694   -1.1125    1.0935 H   0  0  0  0  0  0  0  0  0  0  0  0
   -5.3924    1.1874    1.9973 H   0  0  0  0  0  0  0  0  0  0  0  0
   -4.8576    2.3218    0.7325 H   0  0  0  0  0  0  0  0  0  0  0  0
   -7.8615    0.5473   -0.9386 H   0  0  0  0  0  0  0  0  0  0  0  0
   -8.3500    0.0780    0.6978 H   0  0  0  0  0  0  0  0  0  0  0  0
   -7.4853    2.1012    1.4842 H   0  0  0  0  0  0  0  0  0  0  0  0
   -7.0165    2.5069   -0.1748 H   0  0  0  0  0  0  0  0  0  0  0  0
   -3.9405   -1.3806    0.0324 H   0  0  0  0  0  0  0  0  0  0  0  0
   -3.8685   -0.5055    1.5373 H   0  0  0  0  0  0  0  0  0  0  0  0
   -2.6805   -0.7707   -1.9326 H   0  0  0  0  0  0  0  0  0  0  0  0
   -2.4949    1.6044    1.6623 H   0  0  0  0  0  0  0  0  0  0  0  0
   -0.6856    0.3773   -2.7932 H   0  0  0  0  0  0  0  0  0  0  0  0
   -0.5085    2.7586    0.7982 H   0  0  0  0  0  0  0  0  0  0  0  0
    0.7296    2.3832   -2.6755 H   0  0  0  0  0  0  0  0  0  0  0  0
    0.7786    3.3818   -1.2282 H   0  0  0  0  0  0  0  0  0  0  0  0
    2.3602    0.9624   -1.8262 H   0  0  0  0  0  0  0  0  0  0  0  0
    0.6180   -4.2459   -1.8755 H   0  0  0  0  0  0  0  0  0  0  0  0
   -0.7602   -1.5094    2.0623 H   0  0  0  0  0  0  0  0  0  0  0  0
   -1.5759   -4.6253   -0.7776 H   0  0  0  0  0  0  0  0  0  0  0  0
   -2.2564   -3.2702    1.1708 H   0  0  0  0  0  0  0  0  0  0  0  0
    7.0692    1.9162    0.5994 H   0  0  0  0  0  0  0  0  0  0  0  0
    7.1382   -0.5988    0.7845 H   0  0  0  0  0  0  0  0  0  0  0  0
  1 23  1  0  0  0  0
  1 24  1  0  0  0  0
  2 20  2  0  0  0  0
  3  8  1  0  0  0  0
  3  9  1  0  0  0  0
  3 12  1  0  0  0  0
  4 19  1  0  0  0  0
  4 20  1  0  0  0  0
  4 48  1  0  0  0  0
  5 23  2  0  0  0  0
  5 25  1  0  0  0  0
  6 21  2  0  0  0  0
  6 30  1  0  0  0  0
  7 22  2  0  0  0  0
  7 31  1  0  0  0  0
  8 10  1  0  0  0  0
  8 32  1  0  0  0  0
  8 33  1  0  0  0  0
  9 11  1  0  0  0  0
  9 34  1  0  0  0  0
  9 35  1  0  0  0  0
 10 11  1  0  0  0  0
 10 36  1  0  0  0  0
 10 37  1  0  0  0  0
 11 38  1  0  0  0  0
 11 39  1  0  0  0  0
 12 13  1  0  0  0  0
 12 40  1  0  0  0  0
 12 41  1  0  0  0  0
 13 14  2  0  0  0  0
 13 15  1  0  0  0  0
 14 17  1  0  0  0  0
 14 42  1  0  0  0  0
 15 18  2  0  0  0  0
 15 43  1  0  0  0  0
 16 17  2  0  0  0  0
 16 18  1  0  0  0  0
 16 19  1  0  0  0  0
 17 44  1  0  0  0  0
 18 45  1  0  0  0  0
 19 46  1  0  0  0  0
 19 47  1  0  0  0  0
 20 21  1  0  0  0  0
 21 22  1  0  0  0  0
 22 23  1  0  0  0  0
 24 25  1  0  0  0  0
 24 26  2  0  0  0  0
 25 27  2  0  0  0  0
 26 28  1  0  0  0  0
 26 49  1  0  0  0  0
 27 29  1  0  0  0  0
 27 50  1  0  0  0  0
 28 29  2  0  0  0  0
 28 51  1  0  0  0  0
 29 52  1  0  0  0  0
 30 31  2  0  0  0  0
 30 53  1  0  0  0  0
 31 54  1  0  0  0  0
M  END
> <PUBCHEM_COMPOUND_CID>
17396131

> <PUBCHEM_CONFORMER_RMSD>
1

> <PUBCHEM_CONFORMER_DIVERSEORDER>
1
57
71
7
27
98
24
104
20
86
112
102
56
15
2
26
30
60
23
111
99
84
4
19
100
90
77
3
48
80
89
101
35
31
105
16
47
83
95
66
40
29
97
81
75
72
82
63
62
109
110
22
21
106
107
50
18
45
65
108
68
52
54
79
33
44
59
36
93
85
8
64
34
25
37
76
42
73
96
49
94
10
12
67
28
32
14
74
53
6
92
13
70
88
69
51
46
17
91
55
9
87
58
5
41
38
43
103
11
39
78
61

> <PUBCHEM_MMFF94_PARTIAL_CHARGES>
40
1 -0.08
12 0.41
13 -0.14
14 -0.15
15 -0.15
16 -0.14
17 -0.15
18 -0.15
19 0.44
2 -0.57
20 0.54
21 0.4
22 0.36
23 0.33
24 0.04
25 0.23
26 -0.15
27 -0.15
28 -0.15
29 -0.15
3 -0.81
30 0.16
31 0.16
4 -0.73
42 0.15
43 0.15
44 0.15
45 0.15
48 0.37
49 0.15
5 -0.57
50 0.15
51 0.15
52 0.15
53 0.15
54 0.15
6 -0.62
7 -0.62
8 0.27
9 0.27

> <PUBCHEM_EFFECTIVE_ROTOR_COUNT>
8

> <PUBCHEM_PHARMACOPHORE_FEATURES>
11
1 2 acceptor
1 3 cation
1 4 donor
1 5 acceptor
1 6 acceptor
1 7 acceptor
5 1 5 23 24 25 rings
5 3 8 9 10 11 rings
6 13 14 15 16 17 18 rings
6 24 25 26 27 28 29 rings
6 6 7 21 22 30 31 rings

> <PUBCHEM_HEAVY_ATOM_COUNT>
31

> <PUBCHEM_ATOM_DEF_STEREO_COUNT>
0

> <PUBCHEM_ATOM_UDEF_STEREO_COUNT>
0

> <PUBCHEM_BOND_DEF_STEREO_COUNT>
0

> <PUBCHEM_BOND_UDEF_STEREO_COUNT>
0

> <PUBCHEM_ISOTOPIC_ATOM_COUNT>
0

> <PUBCHEM_COMPONENT_COUNT>
1

> <PUBCHEM_CACTVS_TAUTO_COUNT>
2

> <PUBCHEM_CONFORMER_ID>
010971A300000001

> <PUBCHEM_MMFF94_ENERGY>
73.2104

> <PUBCHEM_FEATURE_SELFOVERLAP>
55.895

> <PUBCHEM_SHAPE_FINGERPRINT>
10006869 2 18200887282281150707
10165383 225 18334296470203190170
1100329 8 18341050696711900908
11421498 54 17604429725003889705
11534866 41 16773503452778027001
11578080 2 17679882414202827264
12422481 6 18128810863617575875
12467345 10 18260545671319222177
12838862 33 18340786869951462664
13140716 1 18269558226418935722
13402501 40 18343584044622320472
1361 2 18410853283070639203
13692114 37 18189346675545759807
14117953 113 18342172288782545997
14725015 67 18126849524100305498
14840074 17 18202002114199313013
15297060 5 18113333085857764355
15840311 113 18118672452457413145
15968369 153 17975969861697558783
16728300 4 17342685553806725426
20715895 44 18408319977877959666
20737093 15 18119562941291578127
21133410 38 17970051456929727825
21133410 90 17532366453266993233
21197605 99 18339356354095510803
21304304 249 18272932747837511726
24771293 8 18411979170145405405
27425 322 15575871359604584282
338550 245 18199744744234907975
3633792 109 18337957900454961225
3680242 22 18130506417705426659
38695281 34 18335420171350761463
394071 54 18267011934041608449
4093350 32 17458338684357574022
4340502 62 18409444778584163773
469060 322 16701474359363151454
513532 50 18115012095789230134
563151 248 17822013111880066758
6004065 56 18410294667029363173
6287921 2 18190728924506433455
9896288 288 17825947310903917040

> <PUBCHEM_SHAPE_MULTIPOLES>
611.04
14.55
3.92
1.24
14.5
3.15
-0.39
-7.79
4.55
-1.35
-0.46
0
-0.08
0.07

> <PUBCHEM_SHAPE_SELFOVERLAP>
1330.622

> <PUBCHEM_SHAPE_VOLUME>
334.2

> <PUBCHEM_COORDINATE_TYPE>
2
5
10

$$$$

