12149
  -OEChem-06261206353D

 17 17  0     0  0  0  0  0  0999 V2000
    3.6711    0.0027    1.2446 S   0  0  0  0  0  0  0  0  0  0  0  0
    1.9140   -0.0018   -0.9025 N   0  0  0  0  0  0  0  0  0  0  0  0
   -2.1241    0.0004    0.2091 C   0  0  0  0  0  0  0  0  0  0  0  0
   -1.4514    1.2080    0.0228 C   0  0  0  0  0  0  0  0  0  0  0  0
   -1.4519   -1.2080    0.0256 C   0  0  0  0  0  0  0  0  0  0  0  0
    0.5659   -0.0011   -0.5306 C   0  0  0  0  0  0  0  0  0  0  0  0
   -0.1065    1.2073   -0.3471 C   0  0  0  0  0  0  0  0  0  0  0  0
   -0.1069   -1.2088   -0.3442 C   0  0  0  0  0  0  0  0  0  0  0  0
   -3.5623    0.0015    0.6036 C   0  0  0  0  0  0  0  0  0  0  0  0
    2.6521   -0.0002    0.0187 C   0  0  0  0  0  0  0  0  0  0  0  0
   -1.9650    2.1559    0.1604 H   0  0  0  0  0  0  0  0  0  0  0  0
   -1.9657   -2.1553    0.1654 H   0  0  0  0  0  0  0  0  0  0  0  0
    0.4066    2.1545   -0.4923 H   0  0  0  0  0  0  0  0  0  0  0  0
    0.4059   -2.1566   -0.4870 H   0  0  0  0  0  0  0  0  0  0  0  0
   -3.8081   -0.8805    1.2047 H   0  0  0  0  0  0  0  0  0  0  0  0
   -3.8046    0.8803    1.2108 H   0  0  0  0  0  0  0  0  0  0  0  0
   -4.1965    0.0057   -0.2884 H   0  0  0  0  0  0  0  0  0  0  0  0
  1 10  2  0  0  0  0
  2  6  1  0  0  0  0
  2 10  2  0  0  0  0
  3  4  2  0  0  0  0
  3  5  1  0  0  0  0
  3  9  1  0  0  0  0
  4  7  1  0  0  0  0
  4 11  1  0  0  0  0
  5  8  2  0  0  0  0
  5 12  1  0  0  0  0
  6  7  2  0  0  0  0
  6  8  1  0  0  0  0
  7 13  1  0  0  0  0
  8 14  1  0  0  0  0
  9 15  1  0  0  0  0
  9 16  1  0  0  0  0
  9 17  1  0  0  0  0
M  END
> <PUBCHEM_COMPOUND_CID>
12149

> <PUBCHEM_CONFORMER_RMSD>
0.4

> <PUBCHEM_CONFORMER_DIVERSEORDER>
1
2
3

> <PUBCHEM_MMFF94_PARTIAL_CHARGES>
14
1 -0.27
10 0.57
11 0.15
12 0.15
13 0.15
14 0.15
2 -0.48
3 -0.14
4 -0.15
5 -0.15
6 0.18
7 -0.15
8 -0.15
9 0.14

> <PUBCHEM_EFFECTIVE_ROTOR_COUNT>
1

> <PUBCHEM_PHARMACOPHORE_FEATURES>
3
1 1 acceptor
1 2 acceptor
6 3 4 5 6 7 8 rings

> <PUBCHEM_HEAVY_ATOM_COUNT>
10

> <PUBCHEM_ATOM_DEF_STEREO_COUNT>
0

> <PUBCHEM_ATOM_UDEF_STEREO_COUNT>
0

> <PUBCHEM_BOND_DEF_STEREO_COUNT>
0

> <PUBCHEM_BOND_UDEF_STEREO_COUNT>
0

> <PUBCHEM_ISOTOPIC_ATOM_COUNT>
0

> <PUBCHEM_COMPONENT_COUNT>
1

> <PUBCHEM_CACTVS_TAUTO_COUNT>
1

> <PUBCHEM_CONFORMER_ID>
00002F7500000001

> <PUBCHEM_MMFF94_ENERGY>
23.8315

> <PUBCHEM_FEATURE_SELFOVERLAP>
15.227

> <PUBCHEM_SHAPE_FINGERPRINT>
10130415 120 18131627863826069969
10857977 72 18408601448438078097
11769659 78 16271640083966695027
12251169 10 18410300185787843752
12932764 1 17676487280587467638
15310529 11 16630520704852583517
16945 1 18410848863253561223
17846911 113 18260552237923083241
20645464 45 17822013112048637214
20653085 51 13984658123048834634
21040471 1 18266445676050765557
23402539 116 18335715939893932117
23402655 69 18193849352504196509
23552423 10 17698432235344656013
2748010 2 18051401061876635647
369184 2 18260556631743088146

> <PUBCHEM_SHAPE_MULTIPOLES>
204.66
5.4
1.2
0.95
2.15
0
-0.13
-0.01
-2.39
-0.46
0.09
0.54
0
0

> <PUBCHEM_SHAPE_SELFOVERLAP>
415.704

> <PUBCHEM_SHAPE_VOLUME>
121

> <PUBCHEM_COORDINATE_TYPE>
2
5
10

$$$$

