3741
  -OEChem-06251223383D

 57 57  0     1  0  0  0  0  0999 V2000
   -2.9336   -1.6489   -1.0025 I   0  0  0  0  0  0  0  0  0  0  0  0
    2.9561   -1.5564    0.5964 I   0  0  0  0  0  0  0  0  0  0  0  0
   -0.1518    3.6753    0.0917 I   0  0  0  0  0  0  0  0  0  0  0  0
    5.7540    0.9654   -1.1509 O   0  0  0  0  0  0  0  0  0  0  0  0
   -5.8746    0.4888    0.9967 O   0  0  0  0  0  0  0  0  0  0  0  0
    1.9188   -4.8191   -2.6269 O   0  0  0  0  0  0  0  0  0  0  0  0
    2.5347    1.8744    1.8104 O   0  0  0  0  0  0  0  0  0  0  0  0
   -2.7251    1.9135   -1.8334 O   0  0  0  0  0  0  0  0  0  0  0  0
   -0.2365   -4.6689    0.8902 O   0  0  0  0  0  0  0  0  0  0  0  0
    7.9367    1.6139    0.4477 O   0  0  0  0  0  0  0  0  0  0  0  0
   -8.0973    1.1725   -0.5305 O   0  0  0  0  0  0  0  0  0  0  0  0
   -0.9725   -3.7030    3.1582 O   0  0  0  0  0  0  0  0  0  0  0  0
    0.0435   -2.6335   -0.2623 N   0  0  0  0  0  0  0  0  0  0  0  0
    3.1529    1.9990   -0.4210 N   0  0  0  0  0  0  0  0  0  0  0  0
   -3.3501    1.7578    0.3950 N   0  0  0  0  0  0  0  0  0  0  0  0
    0.0004   -1.2339   -0.1844 C   0  0  0  0  0  0  0  0  0  0  0  0
    1.1019    0.8725    0.2478 C   0  0  0  0  0  0  0  0  0  0  0  0
   -1.2298    0.8359   -0.3839 C   0  0  0  0  0  0  0  0  0  0  0  0
   -1.1869   -0.5561   -0.4614 C   0  0  0  0  0  0  0  0  0  0  0  0
    1.1448   -0.5195    0.1701 C   0  0  0  0  0  0  0  0  0  0  0  0
    0.4012   -3.3087   -1.5435 C   0  0  0  0  0  0  0  0  0  0  0  0
   -0.0854    1.5502   -0.0292 C   0  0  0  0  0  0  0  0  0  0  0  0
    4.3873    2.7212   -0.2128 C   0  0  0  0  0  0  0  0  0  0  0  0
   -4.6214    2.4178    0.2624 C   0  0  0  0  0  0  0  0  0  0  0  0
    2.3031    1.6220    0.6197 C   0  0  0  0  0  0  0  0  0  0  0  0
   -2.4940    1.5574   -0.6808 C   0  0  0  0  0  0  0  0  0  0  0  0
    5.5870    1.7993   -0.0036 C   0  0  2  0  0  0  0  0  0  0  0  0
   -5.7625    1.4520   -0.0516 C   0  0  2  0  0  0  0  0  0  0  0  0
   -0.2553   -3.4345    0.8878 C   0  0  0  0  0  0  0  0  0  0  0  0
    1.6404   -4.1718   -1.3921 C   0  0  0  0  0  0  0  0  0  0  0  0
    6.8892    2.5559    0.2382 C   0  0  0  0  0  0  0  0  0  0  0  0
   -7.1095    2.1487   -0.2147 C   0  0  0  0  0  0  0  0  0  0  0  0
   -0.6654   -2.7392    2.1733 C   0  0  0  0  0  0  0  0  0  0  0  0
   -0.4466   -3.9402   -1.8347 H   0  0  0  0  0  0  0  0  0  0  0  0
    0.5374   -2.5622   -2.3349 H   0  0  0  0  0  0  0  0  0  0  0  0
    4.5343    3.3330   -1.1098 H   0  0  0  0  0  0  0  0  0  0  0  0
    4.2672    3.3913    0.6453 H   0  0  0  0  0  0  0  0  0  0  0  0
   -4.8052    2.9173    1.2202 H   0  0  0  0  0  0  0  0  0  0  0  0
   -4.5478    3.1853   -0.5159 H   0  0  0  0  0  0  0  0  0  0  0  0
    5.4057    1.1265    0.8430 H   0  0  0  0  0  0  0  0  0  0  0  0
   -5.5423    0.8884   -0.9660 H   0  0  0  0  0  0  0  0  0  0  0  0
    2.9043    1.7475   -1.3736 H   0  0  0  0  0  0  0  0  0  0  0  0
   -3.0798    1.4173    1.3134 H   0  0  0  0  0  0  0  0  0  0  0  0
    2.5292   -3.5924   -1.1778 H   0  0  0  0  0  0  0  0  0  0  0  0
    1.5393   -4.9474   -0.6311 H   0  0  0  0  0  0  0  0  0  0  0  0
    6.8134    3.1998    1.1197 H   0  0  0  0  0  0  0  0  0  0  0  0
    7.1561    3.1608   -0.6345 H   0  0  0  0  0  0  0  0  0  0  0  0
   -7.4111    2.6369    0.7178 H   0  0  0  0  0  0  0  0  0  0  0  0
   -7.0760    2.8887   -1.0201 H   0  0  0  0  0  0  0  0  0  0  0  0
    0.1569   -2.1207    2.5403 H   0  0  0  0  0  0  0  0  0  0  0  0
   -1.5522   -2.1242    2.0096 H   0  0  0  0  0  0  0  0  0  0  0  0
    4.9209    0.4810   -1.2818 H   0  0  0  0  0  0  0  0  0  0  0  0
   -5.0127    0.0454    1.0774 H   0  0  0  0  0  0  0  0  0  0  0  0
    2.7148   -5.3618   -2.4944 H   0  0  0  0  0  0  0  0  0  0  0  0
    8.7513    2.1234    0.5978 H   0  0  0  0  0  0  0  0  0  0  0  0
   -8.9422    1.6440   -0.6274 H   0  0  0  0  0  0  0  0  0  0  0  0
   -1.2117   -3.2211    3.9682 H   0  0  0  0  0  0  0  0  0  0  0  0
  1 19  1  0  0  0  0
  2 20  1  0  0  0  0
  3 22  1  0  0  0  0
  4 27  1  0  0  0  0
  4 52  1  0  0  0  0
  5 28  1  0  0  0  0
  5 53  1  0  0  0  0
  6 30  1  0  0  0  0
  6 54  1  0  0  0  0
  7 25  2  0  0  0  0
  8 26  2  0  0  0  0
  9 29  2  0  0  0  0
 10 31  1  0  0  0  0
 10 55  1  0  0  0  0
 11 32  1  0  0  0  0
 11 56  1  0  0  0  0
 12 33  1  0  0  0  0
 12 57  1  0  0  0  0
 13 16  1  0  0  0  0
 13 21  1  0  0  0  0
 13 29  1  0  0  0  0
 14 23  1  0  0  0  0
 14 25  1  0  0  0  0
 14 42  1  0  0  0  0
 15 24  1  0  0  0  0
 15 26  1  0  0  0  0
 15 43  1  0  0  0  0
 16 19  2  0  0  0  0
 16 20  1  0  0  0  0
 17 20  2  0  0  0  0
 17 22  1  0  0  0  0
 17 25  1  0  0  0  0
 18 19  1  0  0  0  0
 18 22  2  0  0  0  0
 18 26  1  0  0  0  0
 21 30  1  0  0  0  0
 21 34  1  0  0  0  0
 21 35  1  0  0  0  0
 23 27  1  0  0  0  0
 23 36  1  0  0  0  0
 23 37  1  0  0  0  0
 24 28  1  0  0  0  0
 24 38  1  0  0  0  0
 24 39  1  0  0  0  0
 27 31  1  0  0  0  0
 27 40  1  0  0  0  0
 28 32  1  0  0  0  0
 28 41  1  0  0  0  0
 29 33  1  0  0  0  0
 30 44  1  0  0  0  0
 30 45  1  0  0  0  0
 31 46  1  0  0  0  0
 31 47  1  0  0  0  0
 32 48  1  0  0  0  0
 32 49  1  0  0  0  0
 33 50  1  0  0  0  0
 33 51  1  0  0  0  0
M  END
> <PUBCHEM_COMPOUND_CID>
3741

> <PUBCHEM_CONFORMER_RMSD>
1.2

> <PUBCHEM_CONFORMER_DIVERSEORDER>
1
35
26
21
30
6
39
13
34
42
41
29
4
18
32
23
5
2
38
37
40
9
36
27
8
20
22
28
3
31
11
33
25
10
16
24
7
14
19
17
12
15

> <PUBCHEM_MMFF94_PARTIAL_CHARGES>
41
1 -0.08
10 -0.68
11 -0.68
12 -0.68
13 -0.48
14 -0.73
15 -0.73
16 0.12
17 0.09
18 0.09
19 0.08
2 -0.08
20 0.08
21 0.3
22 0.08
23 0.3
24 0.3
25 0.54
26 0.54
27 0.28
28 0.28
29 0.57
3 -0.08
30 0.28
31 0.28
32 0.28
33 0.34
4 -0.68
42 0.37
43 0.37
5 -0.68
52 0.4
53 0.4
54 0.4
55 0.4
56 0.4
57 0.4
6 -0.68
7 -0.57
8 -0.57
9 -0.57

> <PUBCHEM_EFFECTIVE_ROTOR_COUNT>
15

> <PUBCHEM_PHARMACOPHORE_FEATURES>
21
1 1 hydrophobe
1 10 acceptor
1 10 donor
1 11 acceptor
1 11 donor
1 12 acceptor
1 12 donor
1 14 donor
1 15 donor
1 2 hydrophobe
1 3 hydrophobe
1 4 acceptor
1 4 donor
1 5 acceptor
1 5 donor
1 6 acceptor
1 6 donor
1 7 acceptor
1 8 acceptor
1 9 acceptor
6 16 17 18 19 20 22 rings

> <PUBCHEM_HEAVY_ATOM_COUNT>
33

> <PUBCHEM_ATOM_DEF_STEREO_COUNT>
0

> <PUBCHEM_ATOM_UDEF_STEREO_COUNT>
2

> <PUBCHEM_BOND_DEF_STEREO_COUNT>
0

> <PUBCHEM_BOND_UDEF_STEREO_COUNT>
0

> <PUBCHEM_ISOTOPIC_ATOM_COUNT>
0

> <PUBCHEM_COMPONENT_COUNT>
1

> <PUBCHEM_CACTVS_TAUTO_COUNT>
3

> <PUBCHEM_CONFORMER_ID>
00000E9D00000001

> <PUBCHEM_MMFF94_ENERGY>
115.4624

> <PUBCHEM_FEATURE_SELFOVERLAP>
106.599

> <PUBCHEM_SHAPE_FINGERPRINT>
10165383 225 18410576179885923709
102385 1 17762904663830742557
11991303 11 18059851714800165750
12160290 23 17836958635886539492
12597179 24 18411694383226481610
13140716 1 18337968868830413425
13692114 37 18262530177610395034
14790565 3 18410290354128194304
14866123 147 18267866077591239523
15064986 266 18197494035739035364
15131766 46 15265348295459121428
15927050 60 18411140212255356746
22224240 67 18413390921690661161
23559900 14 17755590683277043169
3411729 13 18338801229698577081
350125 39 18410579478472976341
4058900 60 18270958054908579753
4408954 64 16410668798114125699
6669772 16 18261388979283265342
6673363 416 17257933123259463842

> <PUBCHEM_SHAPE_MULTIPOLES>
647.16
13.98
6.32
1.67
3.08
7.17
0.51
-18.36
-0.73
-2.46
-0.42
0.01
2.43
1.27

> <PUBCHEM_SHAPE_SELFOVERLAP>
1257.786

> <PUBCHEM_SHAPE_VOLUME>
399.3

> <PUBCHEM_COORDINATE_TYPE>
2
5
10

$$$$

