4175
  -OEChem-06251223562D

 64 66  0     1  0  0  0  0  0999 V2000
    3.7320    0.2649    0.0000 O   0  0  0  0  0  0  0  0  0  0  0  0
    7.1893   -1.7896    0.0000 O   0  0  0  0  0  0  0  0  0  0  0  0
    2.0000    0.2649    0.0000 O   0  0  0  0  0  0  0  0  0  0  0  0
    8.0379   -3.2995    0.0000 O   0  0  0  0  0  0  0  0  0  0  0  0
    4.5981    1.7649    0.0000 C   0  0  3  0  0  0  0  0  0  0  0  0
    5.4920    1.2302    0.0000 C   0  0  3  0  0  0  0  0  0  0  0  0
    3.7320    1.2649    0.0000 C   0  0  3  0  0  0  0  0  0  0  0  0
    6.3981    1.7441    0.0000 C   0  0  3  0  0  0  0  0  0  0  0  0
    4.5981    2.7649    0.0000 C   0  0  0  0  0  0  0  0  0  0  0  0
    5.4804    0.2303    0.0000 C   0  0  0  0  0  0  0  0  0  0  0  0
    2.8660    1.7649    0.0000 C   0  0  0  0  0  0  0  0  0  0  0  0
    2.8660    2.7649    0.0000 C   0  0  3  0  0  0  0  0  0  0  0  0
    3.7320    3.2649    0.0000 C   0  0  0  0  0  0  0  0  0  0  0  0
    6.3406   -0.2797    0.0000 C   0  0  0  0  0  0  0  0  0  0  0  0
    6.3981    2.7857    0.0000 C   0  0  0  0  0  0  0  0  0  0  0  0
    5.4920    3.2995    0.0000 C   0  0  0  0  0  0  0  0  0  0  0  0
    7.2622    1.2407    0.0000 C   0  0  0  0  0  0  0  0  0  0  0  0
    6.3291   -1.2796    0.0000 C   0  0  3  0  0  0  0  0  0  0  0  0
    2.0000    3.2649    0.0000 C   0  0  0  0  0  0  0  0  0  0  0  0
    5.4573   -1.7696    0.0000 C   0  0  0  0  0  0  0  0  0  0  0  0
    5.4458   -2.7695    0.0000 C   0  0  0  0  0  0  0  0  0  0  0  0
    2.8660   -0.2351    0.0000 C   0  0  0  0  0  0  0  0  0  0  0  0
    6.3060   -3.2795    0.0000 C   0  0  0  0  0  0  0  0  0  0  0  0
    2.8660   -1.2351    0.0000 C   0  0  3  0  0  0  0  0  0  0  0  0
    7.1777   -2.7896    0.0000 C   0  0  0  0  0  0  0  0  0  0  0  0
    2.0000   -1.7351    0.0000 C   0  0  0  0  0  0  0  0  0  0  0  0
    3.7320   -1.7351    0.0000 C   0  0  0  0  0  0  0  0  0  0  0  0
    2.0000   -2.7351    0.0000 C   0  0  0  0  0  0  0  0  0  0  0  0
    4.5933    1.1449    0.0000 H   0  0  0  0  0  0  0  0  0  0  0  0
    4.9510    0.9275    0.0000 H   0  0  0  0  0  0  0  0  0  0  0  0
    4.2690    0.9549    0.0000 H   0  0  0  0  0  0  0  0  0  0  0  0
    6.9356    2.0530    0.0000 H   0  0  0  0  0  0  0  0  0  0  0  0
    4.8712    0.3450    0.0000 H   0  0  0  0  0  0  0  0  0  0  0  0
    5.2617   -0.3498    0.0000 H   0  0  0  0  0  0  0  0  0  0  0  0
    2.2554    1.8725    0.0000 H   0  0  0  0  0  0  0  0  0  0  0  0
    2.6540    1.1823    0.0000 H   0  0  0  0  0  0  0  0  0  0  0  0
    2.8660    3.3849    0.0000 H   0  0  0  0  0  0  0  0  0  0  0  0
    3.7320    3.8849    0.0000 H   0  0  0  0  0  0  0  0  0  0  0  0
    6.9499   -0.3944    0.0000 H   0  0  0  0  0  0  0  0  0  0  0  0
    6.5594    0.3004    0.0000 H   0  0  0  0  0  0  0  0  0  0  0  0
    6.9338    3.0978    0.0000 H   0  0  0  0  0  0  0  0  0  0  0  0
    5.4848    3.9195    0.0000 H   0  0  0  0  0  0  0  0  0  0  0  0
    6.9501    0.7050    0.0000 H   0  0  0  0  0  0  0  0  0  0  0  0
    7.7979    0.9287    0.0000 H   0  0  0  0  0  0  0  0  0  0  0  0
    7.5742    1.7765    0.0000 H   0  0  0  0  0  0  0  0  0  0  0  0
    6.8696   -0.9759    0.0000 H   0  0  0  0  0  0  0  0  0  0  0  0
    2.3100    3.8018    0.0000 H   0  0  0  0  0  0  0  0  0  0  0  0
    1.4631    3.5749    0.0000 H   0  0  0  0  0  0  0  0  0  0  0  0
    1.6900    2.7279    0.0000 H   0  0  0  0  0  0  0  0  0  0  0  0
    5.2520   -1.1846    0.0000 H   0  0  0  0  0  0  0  0  0  0  0  0
    4.8455   -1.8702    0.0000 H   0  0  0  0  0  0  0  0  0  0  0  0
    4.8365   -2.6548    0.0000 H   0  0  0  0  0  0  0  0  0  0  0  0
    5.2270   -3.3496    0.0000 H   0  0  0  0  0  0  0  0  0  0  0  0
    5.9020   -3.7498    0.0000 H   0  0  0  0  0  0  0  0  0  0  0  0
    6.6990   -3.7590    0.0000 H   0  0  0  0  0  0  0  0  0  0  0  0
    2.8660   -1.8551    0.0000 H   0  0  0  0  0  0  0  0  0  0  0  0
    1.7880   -1.1525    0.0000 H   0  0  0  0  0  0  0  0  0  0  0  0
    1.3894   -1.8428    0.0000 H   0  0  0  0  0  0  0  0  0  0  0  0
    3.4220   -2.2721    0.0000 H   0  0  0  0  0  0  0  0  0  0  0  0
    4.2690   -2.0451    0.0000 H   0  0  0  0  0  0  0  0  0  0  0  0
    4.0420   -1.1982    0.0000 H   0  0  0  0  0  0  0  0  0  0  0  0
    1.3800   -2.7351    0.0000 H   0  0  0  0  0  0  0  0  0  0  0  0
    2.0000   -3.3551    0.0000 H   0  0  0  0  0  0  0  0  0  0  0  0
    2.6200   -2.7351    0.0000 H   0  0  0  0  0  0  0  0  0  0  0  0
  1  7  1  0  0  0  0
  1 22  1  0  0  0  0
  2 18  1  0  0  0  0
  2 25  1  0  0  0  0
  3 22  2  0  0  0  0
  4 25  2  0  0  0  0
  5  6  1  0  0  0  0
  5  7  1  0  0  0  0
  5  9  1  0  0  0  0
  5 29  1  0  0  0  0
  6  8  1  0  0  0  0
  6 10  1  0  0  0  0
  6 30  1  0  0  0  0
  7 11  1  0  0  0  0
  7 31  1  0  0  0  0
  8 15  1  0  0  0  0
  8 17  1  0  0  0  0
  8 32  1  0  0  0  0
  9 13  2  0  0  0  0
  9 16  1  0  0  0  0
 10 14  1  0  0  0  0
 10 33  1  0  0  0  0
 10 34  1  0  0  0  0
 11 12  1  0  0  0  0
 11 35  1  0  0  0  0
 11 36  1  0  0  0  0
 12 13  1  0  0  0  0
 12 19  1  0  0  0  0
 12 37  1  0  0  0  0
 13 38  1  0  0  0  0
 14 18  1  0  0  0  0
 14 39  1  0  0  0  0
 14 40  1  0  0  0  0
 15 16  2  0  0  0  0
 15 41  1  0  0  0  0
 16 42  1  0  0  0  0
 17 43  1  0  0  0  0
 17 44  1  0  0  0  0
 17 45  1  0  0  0  0
 18 20  1  0  0  0  0
 18 46  1  0  0  0  0
 19 47  1  0  0  0  0
 19 48  1  0  0  0  0
 19 49  1  0  0  0  0
 20 21  1  0  0  0  0
 20 50  1  0  0  0  0
 20 51  1  0  0  0  0
 21 23  1  0  0  0  0
 21 52  1  0  0  0  0
 21 53  1  0  0  0  0
 22 24  1  0  0  0  0
 23 25  1  0  0  0  0
 23 54  1  0  0  0  0
 23 55  1  0  0  0  0
 24 26  1  0  0  0  0
 24 27  1  0  0  0  0
 24 56  1  0  0  0  0
 26 28  1  0  0  0  0
 26 57  1  0  0  0  0
 26 58  1  0  0  0  0
 27 59  1  0  0  0  0
 27 60  1  0  0  0  0
 27 61  1  0  0  0  0
 28 62  1  0  0  0  0
 28 63  1  0  0  0  0
 28 64  1  0  0  0  0
M  END
> <PUBCHEM_COMPOUND_CID>
4175

> <PUBCHEM_COMPOUND_CANONICALIZED>
1

> <PUBCHEM_CACTVS_COMPLEXITY>
635

> <PUBCHEM_CACTVS_HBOND_ACCEPTOR>
4

> <PUBCHEM_CACTVS_HBOND_DONOR>
0

> <PUBCHEM_CACTVS_ROTATABLE_BOND>
7

> <PUBCHEM_CACTVS_SUBSKEYS>
AAADcfB4OAAAAAAAAAAAAAAAAAAAAAAAAAAkQIAAAAAAAACAAAAAGgAAAAAADRSggAICCAAABACIAiDSCAAAAAAgAAAICAEAAAgIABIAAQACAAAEwAAIgAOIzPDOgAAAAAAAAAAAAAAAAAAAAAAAAAAAAA==

> <PUBCHEM_IUPAC_OPENEYE_NAME>
[3,7-dimethyl-8-[2-(6-oxotetrahydropyran-2-yl)ethyl]-1,2,3,7,8,8a-hexahydronaphthalen-1-yl] 2-methylbutanoate

> <PUBCHEM_IUPAC_CAS_NAME>
2-methylbutanoic acid [3,7-dimethyl-8-[2-(6-oxo-2-oxanyl)ethyl]-1,2,3,7,8,8a-hexahydronaphthalen-1-yl] ester

> <PUBCHEM_IUPAC_NAME>
[3,7-dimethyl-8-[2-(6-oxooxan-2-yl)ethyl]-1,2,3,7,8,8a-hexahydronaphthalen-1-yl] 2-methylbutanoate

> <PUBCHEM_IUPAC_SYSTEMATIC_NAME>
[3,7-dimethyl-8-[2-(6-oxidanylideneoxan-2-yl)ethyl]-1,2,3,7,8,8a-hexahydronaphthalen-1-yl] 2-methylbutanoate

> <PUBCHEM_IUPAC_TRADITIONAL_NAME>
2-methylbutyric acid [8-[2-(6-ketotetrahydropyran-2-yl)ethyl]-3,7-dimethyl-1,2,3,7,8,8a-hexahydronaphthalen-1-yl] ester

> <PUBCHEM_IUPAC_INCHI>
InChI=1S/C24H36O4/c1-5-16(3)24(26)28-21-14-15(2)13-18-10-9-17(4)20(23(18)21)12-11-19-7-6-8-22(25)27-19/h9-10,13,15-17,19-21,23H,5-8,11-12,14H2,1-4H3

> <PUBCHEM_IUPAC_INCHIKEY>
ABCOWPXGNWZMNY-UHFFFAOYSA-N

> <PUBCHEM_XLOGP3>
5.2

> <PUBCHEM_EXACT_MASS>
388.26136

> <PUBCHEM_MOLECULAR_FORMULA>
C24H36O4

> <PUBCHEM_MOLECULAR_WEIGHT>
388.54024

> <PUBCHEM_OPENEYE_CAN_SMILES>
CCC(C)C(=O)OC1CC(C=C2C1C(C(C=C2)C)CCC3CCCC(=O)O3)C

> <PUBCHEM_OPENEYE_ISO_SMILES>
CCC(C)C(=O)OC1CC(C=C2C1C(C(C=C2)C)CCC3CCCC(=O)O3)C

> <PUBCHEM_CACTVS_TPSA>
52.6

> <PUBCHEM_MONOISOTOPIC_WEIGHT>
388.26136

> <PUBCHEM_TOTAL_CHARGE>
0

> <PUBCHEM_HEAVY_ATOM_COUNT>
28

> <PUBCHEM_ATOM_DEF_STEREO_COUNT>
0

> <PUBCHEM_ATOM_UDEF_STEREO_COUNT>
7

> <PUBCHEM_BOND_DEF_STEREO_COUNT>
0

> <PUBCHEM_BOND_UDEF_STEREO_COUNT>
0

> <PUBCHEM_ISOTOPIC_ATOM_COUNT>
0

> <PUBCHEM_COMPONENT_COUNT>
1

> <PUBCHEM_CACTVS_TAUTO_COUNT>
2

> <PUBCHEM_COORDINATE_TYPE>
1
5
255

> <PUBCHEM_BONDANNOTATIONS>
7  1  3
12  19  3
18  14  3
24  27  3
5  9  3
6  10  3
8  17  3

$$$$

