583011
  -OEChem-06241222443D

 29 30  0     0  0  0  0  0  0999 V2000
    4.2679    0.2655    0.3170 O   0  0  0  0  0  0  0  0  0  0  0  0
    2.6149    0.2500   -1.2922 O   0  0  0  0  0  0  0  0  0  0  0  0
    0.8033   -0.7593    0.5667 N   0  0  0  0  0  0  0  0  0  0  0  0
   -0.1571    0.1715    0.6572 N   0  0  0  0  0  0  0  0  0  0  0  0
    0.4279   -1.9478    0.0739 N   0  0  0  0  0  0  0  0  0  0  0  0
   -0.8666   -1.8076   -0.1840 N   0  0  0  0  0  0  0  0  0  0  0  0
    2.1591   -0.4982    0.9746 C   0  0  0  0  0  0  0  0  0  0  0  0
   -2.5108   -0.0042    0.0418 C   0  0  0  0  0  0  0  0  0  0  0  0
   -1.1825   -0.5327    0.1754 C   0  0  0  0  0  0  0  0  0  0  0  0
    3.0032    0.0439   -0.1505 C   0  0  0  0  0  0  0  0  0  0  0  0
   -2.7805    1.3096    0.4254 C   0  0  0  0  0  0  0  0  0  0  0  0
   -3.5315   -0.8044   -0.4715 C   0  0  0  0  0  0  0  0  0  0  0  0
    5.1963    0.7852   -0.6403 C   0  0  0  0  0  0  0  0  0  0  0  0
   -4.0710    1.8230    0.2959 C   0  0  0  0  0  0  0  0  0  0  0  0
   -4.8219   -0.2909   -0.6010 C   0  0  0  0  0  0  0  0  0  0  0  0
   -5.0916    1.0229   -0.2173 C   0  0  0  0  0  0  0  0  0  0  0  0
    6.5410    0.9736    0.0288 C   0  0  0  0  0  0  0  0  0  0  0  0
    2.1285    0.2285    1.7927 H   0  0  0  0  0  0  0  0  0  0  0  0
    2.5879   -1.4391    1.3339 H   0  0  0  0  0  0  0  0  0  0  0  0
   -2.0100    1.9616    0.8291 H   0  0  0  0  0  0  0  0  0  0  0  0
   -3.3523   -1.8316   -0.7789 H   0  0  0  0  0  0  0  0  0  0  0  0
    5.2932    0.0813   -1.4744 H   0  0  0  0  0  0  0  0  0  0  0  0
    4.8322    1.7476   -1.0168 H   0  0  0  0  0  0  0  0  0  0  0  0
   -4.2815    2.8458    0.5946 H   0  0  0  0  0  0  0  0  0  0  0  0
   -5.6170   -0.9136   -1.0007 H   0  0  0  0  0  0  0  0  0  0  0  0
   -6.0964    1.4227   -0.3182 H   0  0  0  0  0  0  0  0  0  0  0  0
    7.2765    1.3707   -0.6763 H   0  0  0  0  0  0  0  0  0  0  0  0
    6.4566    1.6614    0.8766 H   0  0  0  0  0  0  0  0  0  0  0  0
    6.9100    0.0225    0.4267 H   0  0  0  0  0  0  0  0  0  0  0  0
  1 10  1  0  0  0  0
  1 13  1  0  0  0  0
  2 10  2  0  0  0  0
  3  4  1  0  0  0  0
  3  5  1  0  0  0  0
  3  7  1  0  0  0  0
  4  9  2  0  0  0  0
  5  6  2  0  0  0  0
  6  9  1  0  0  0  0
  7 10  1  0  0  0  0
  7 18  1  0  0  0  0
  7 19  1  0  0  0  0
  8  9  1  0  0  0  0
  8 11  2  0  0  0  0
  8 12  1  0  0  0  0
 11 14  1  0  0  0  0
 11 20  1  0  0  0  0
 12 15  2  0  0  0  0
 12 21  1  0  0  0  0
 13 17  1  0  0  0  0
 13 22  1  0  0  0  0
 13 23  1  0  0  0  0
 14 16  2  0  0  0  0
 14 24  1  0  0  0  0
 15 16  1  0  0  0  0
 15 25  1  0  0  0  0
 16 26  1  0  0  0  0
 17 27  1  0  0  0  0
 17 28  1  0  0  0  0
 17 29  1  0  0  0  0
M  END
> <PUBCHEM_COMPOUND_CID>
583011

> <PUBCHEM_CONFORMER_RMSD>
0.6

> <PUBCHEM_CONFORMER_DIVERSEORDER>
1
36
17
22
71
20
62
33
19
61
54
10
66
50
67
69
44
31
14
70
51
65
41
76
27
21
49
59
74
3
13
28
11
6
15
42
63
56
2
73
24
12
16
46
26
25
18
77
37
38
68
23
72
48
47
4
30
64
8
53
45
32
34
43
29
55
75
60
35
40
9
52
5
39
58
57
7

> <PUBCHEM_MMFF94_PARTIAL_CHARGES>
21
1 -0.43
10 0.66
11 -0.15
12 -0.15
13 0.28
14 -0.15
15 -0.15
16 -0.15
2 -0.57
20 0.15
21 0.15
24 0.15
25 0.15
26 0.15
3 0.58
4 -0.71
5 -0.42
6 -0.23
7 0.32
8 0.05
9 0.46

> <PUBCHEM_EFFECTIVE_ROTOR_COUNT>
5

> <PUBCHEM_PHARMACOPHORE_FEATURES>
4
1 2 acceptor
3 4 6 9 cation
5 3 4 5 6 9 rings
6 8 11 12 14 15 16 rings

> <PUBCHEM_HEAVY_ATOM_COUNT>
17

> <PUBCHEM_ATOM_DEF_STEREO_COUNT>
0

> <PUBCHEM_ATOM_UDEF_STEREO_COUNT>
0

> <PUBCHEM_BOND_DEF_STEREO_COUNT>
0

> <PUBCHEM_BOND_UDEF_STEREO_COUNT>
0

> <PUBCHEM_ISOTOPIC_ATOM_COUNT>
0

> <PUBCHEM_COMPONENT_COUNT>
1

> <PUBCHEM_CACTVS_TAUTO_COUNT>
1

> <PUBCHEM_CONFORMER_ID>
0008E56300000001

> <PUBCHEM_MMFF94_ENERGY>
24.6577

> <PUBCHEM_FEATURE_SELFOVERLAP>
20.297

> <PUBCHEM_SHAPE_FINGERPRINT>
100836 57 18272084998497067636
10354089 29 17203605995514425088
10498660 4 18334860575424147369
10730089 173 18407477764993089392
11046707 91 8862940576435124963
11089746 13 18341898455354578940
117890 112 18410293580597848556
12236239 1 18130793356254953978
12507557 5 17346594153970084541
12555020 224 7709164721683081257
12633257 1 15195278703710294464
12670543 26 17967808379925237366
12714333 28 18259704489073340320
12916748 109 18410567392376664787
13288520 33 8646771097087881793
13631057 29 17631167481866354363
13740256 8 8790877488959932620
13897977 58 18410575102549979257
14341114 176 12391509780974072310
14350574 20 16298387924805162963
15048467 5 18343022216072374125
15183329 4 18334850663235278910
15188451 53 13182442336622908881
167882 2 18189046655053480206
1813 80 6555418651567847400
18186145 218 17095531690432376531
19784866 240 6627751106174587520
200 152 4967617169892786210
20281389 69 18060142033642494580
20300324 65 18186802482990149841
204376 136 17060616702829061395
20645477 56 18408322172489839330
20871999 31 17676778586797235367
21637258 2 6699809740095793436
2297311 6 17458063751370194921
23402539 116 18333454231427313996
23402655 69 18113337543679694059
23557571 272 17967810518207111973
23559900 14 17676494900060014944
26918003 58 12895072920502685133
2767999 5 18273498961945141532
2916195 48 18334299730189135696
293599 30 18411136939658419632
3004659 81 18335418019962620694
351380 3 7204776977696157796
42 15 10231753396626496403
441001 317 18408885126748978905
474 4 17775280560421520909
4990 188 17458346359632689791
5924683 9 14188995745122523609
76465 3 9655276130596072985

> <PUBCHEM_SHAPE_MULTIPOLES>
318.19
13.26
1.54
0.85
13.23
0.14
0.05
-6.61
2.14
-0.99
-0.07
0.28
-0.02
-0.6

> <PUBCHEM_SHAPE_SELFOVERLAP>
668.146

> <PUBCHEM_SHAPE_VOLUME>
181.1

> <PUBCHEM_COORDINATE_TYPE>
2
5
10

$$$$

