5186
  -OEChem-06261200342D

 42 44  0     0  0  0  0  0  0999 V2000
    2.0520   -1.5254    0.0000 O   0  0  0  0  0  0  0  0  0  0  0  0
    5.5161   -1.5254    0.0000 O   0  0  0  0  0  0  0  0  0  0  0  0
    7.2482    2.4746    0.0000 O   0  0  0  0  0  0  0  0  0  0  0  0
    7.2482    4.4746    0.0000 O   0  0  0  0  0  0  0  0  0  0  0  0
    3.7841   -1.5254    0.0000 N   0  0  0  0  0  0  0  0  0  0  0  0
    6.3821    3.9746    0.0000 N   0  0  0  0  0  0  0  0  0  0  0  0
    4.6501   -0.0254    0.0000 C   0  0  0  0  0  0  0  0  0  0  0  0
    3.7841   -0.5254    0.0000 C   0  0  0  0  0  0  0  0  0  0  0  0
    4.6501    0.9746    0.0000 C   0  0  0  0  0  0  0  0  0  0  0  0
    3.7841   -3.5254    0.0000 C   0  0  0  0  0  0  0  0  0  0  0  0
    4.6501   -3.0254    0.0000 C   0  0  0  0  0  0  0  0  0  0  0  0
    2.9180   -3.0254    0.0000 C   0  0  0  0  0  0  0  0  0  0  0  0
    5.5161    1.4746    0.0000 C   0  0  0  0  0  0  0  0  0  0  0  0
    4.6501   -2.0254    0.0000 C   0  0  0  0  0  0  0  0  0  0  0  0
    2.9180   -2.0254    0.0000 C   0  0  0  0  0  0  0  0  0  0  0  0
    3.8001   -4.5669    0.0000 C   0  0  0  0  0  0  0  0  0  0  0  0
    5.5161    2.4746    0.0000 C   0  0  0  0  0  0  0  0  0  0  0  0
    5.5601   -3.5322    0.0000 C   0  0  0  0  0  0  0  0  0  0  0  0
    2.0080   -3.5322    0.0000 C   0  0  0  0  0  0  0  0  0  0  0  0
    2.9021   -5.0946    0.0000 C   0  0  0  0  0  0  0  0  0  0  0  0
    4.6660   -5.0946    0.0000 C   0  0  0  0  0  0  0  0  0  0  0  0
    5.5681   -4.5738    0.0000 C   0  0  0  0  0  0  0  0  0  0  0  0
    2.0000   -4.5738    0.0000 C   0  0  0  0  0  0  0  0  0  0  0  0
    6.3821    2.9746    0.0000 C   0  0  0  0  0  0  0  0  0  0  0  0
    4.8621   -0.6080    0.0000 H   0  0  0  0  0  0  0  0  0  0  0  0
    5.2607    0.0823    0.0000 H   0  0  0  0  0  0  0  0  0  0  0  0
    3.5720    0.0572    0.0000 H   0  0  0  0  0  0  0  0  0  0  0  0
    3.1735   -0.6330    0.0000 H   0  0  0  0  0  0  0  0  0  0  0  0
    4.4380    1.5572    0.0000 H   0  0  0  0  0  0  0  0  0  0  0  0
    4.0395    0.8670    0.0000 H   0  0  0  0  0  0  0  0  0  0  0  0
    5.7282    0.8920    0.0000 H   0  0  0  0  0  0  0  0  0  0  0  0
    6.1267    1.5823    0.0000 H   0  0  0  0  0  0  0  0  0  0  0  0
    5.3040    3.0572    0.0000 H   0  0  0  0  0  0  0  0  0  0  0  0
    4.9055    2.3670    0.0000 H   0  0  0  0  0  0  0  0  0  0  0  0
    1.4747   -3.2160    0.0000 H   0  0  0  0  0  0  0  0  0  0  0  0
    6.0934   -3.2160    0.0000 H   0  0  0  0  0  0  0  0  0  0  0  0
    2.9045   -5.7146    0.0000 H   0  0  0  0  0  0  0  0  0  0  0  0
    4.6587   -5.7146    0.0000 H   0  0  0  0  0  0  0  0  0  0  0  0
    1.4619   -4.8817    0.0000 H   0  0  0  0  0  0  0  0  0  0  0  0
    6.1062   -4.8817    0.0000 H   0  0  0  0  0  0  0  0  0  0  0  0
    5.8452    4.2846    0.0000 H   0  0  0  0  0  0  0  0  0  0  0  0
    7.2482    5.0946    0.0000 H   0  0  0  0  0  0  0  0  0  0  0  0
  1 15  2  0  0  0  0
  2 14  2  0  0  0  0
  3 24  2  0  0  0  0
  4  6  1  0  0  0  0
  4 42  1  0  0  0  0
  5  8  1  0  0  0  0
  5 14  1  0  0  0  0
  5 15  1  0  0  0  0
  6 24  1  0  0  0  0
  6 41  1  0  0  0  0
  7  8  1  0  0  0  0
  7  9  1  0  0  0  0
  7 25  1  0  0  0  0
  7 26  1  0  0  0  0
  8 27  1  0  0  0  0
  8 28  1  0  0  0  0
  9 13  1  0  0  0  0
  9 29  1  0  0  0  0
  9 30  1  0  0  0  0
 10 11  1  0  0  0  0
 10 12  1  0  0  0  0
 10 16  2  0  0  0  0
 11 14  1  0  0  0  0
 11 18  2  0  0  0  0
 12 15  1  0  0  0  0
 12 19  2  0  0  0  0
 13 17  1  0  0  0  0
 13 31  1  0  0  0  0
 13 32  1  0  0  0  0
 16 20  1  0  0  0  0
 16 21  1  0  0  0  0
 17 24  1  0  0  0  0
 17 33  1  0  0  0  0
 17 34  1  0  0  0  0
 18 22  1  0  0  0  0
 18 36  1  0  0  0  0
 19 23  1  0  0  0  0
 19 35  1  0  0  0  0
 20 23  2  0  0  0  0
 20 37  1  0  0  0  0
 21 22  2  0  0  0  0
 21 38  1  0  0  0  0
 22 40  1  0  0  0  0
 23 39  1  0  0  0  0
M  END
> <PUBCHEM_COMPOUND_CID>
5186

> <PUBCHEM_COMPOUND_CANONICALIZED>
1

> <PUBCHEM_CACTVS_COMPLEXITY>
477

> <PUBCHEM_CACTVS_HBOND_ACCEPTOR>
4

> <PUBCHEM_CACTVS_HBOND_DONOR>
2

> <PUBCHEM_CACTVS_ROTATABLE_BOND>
6

> <PUBCHEM_CACTVS_SUBSKEYS>
AAADceB7OAAAAAAAAAAAAAAAAAAAAAAAAAA8YIAAAAAAAADxUAAAHgAUCAAADADBmAQwAMNQAACIAiFSEACCAAAkAAAoiAEIBMgIIDKAlRGEIQhgliCIiYcYi8COgAACAAAQAAAAAAQAACAAAAAAAAAAAA==

> <PUBCHEM_IUPAC_OPENEYE_NAME>
6-(1,3-dioxobenzo[de]isoquinolin-2-yl)hexanehydroxamic acid

> <PUBCHEM_IUPAC_CAS_NAME>
6-(1,3-dioxo-2-benzo[de]isoquinolinyl)-N-hydroxyhexanamide

> <PUBCHEM_IUPAC_NAME>
6-(1,3-dioxobenzo[de]isoquinolin-2-yl)-N-hydroxyhexanamide

> <PUBCHEM_IUPAC_SYSTEMATIC_NAME>
6-[1,3-bis(oxidanylidene)benzo[de]isoquinolin-2-yl]-N-oxidanyl-hexanamide

> <PUBCHEM_IUPAC_TRADITIONAL_NAME>
6-(1,3-diketobenzo[de]isoquinolin-2-yl)hexanehydroxamic acid

> <PUBCHEM_IUPAC_INCHI>
InChI=1S/C18H18N2O4/c21-15(19-24)10-2-1-3-11-20-17(22)13-8-4-6-12-7-5-9-14(16(12)13)18(20)23/h4-9,24H,1-3,10-11H2,(H,19,21)

> <PUBCHEM_IUPAC_INCHIKEY>
JTDYUFSDZATMKU-UHFFFAOYSA-N

> <PUBCHEM_XLOGP3_AA>
2

> <PUBCHEM_EXACT_MASS>
326.126657

> <PUBCHEM_MOLECULAR_FORMULA>
C18H18N2O4

> <PUBCHEM_MOLECULAR_WEIGHT>
326.34652

> <PUBCHEM_OPENEYE_CAN_SMILES>
C1=CC2=C3C(=C1)C(=O)N(C(=O)C3=CC=C2)CCCCCC(=O)NO

> <PUBCHEM_OPENEYE_ISO_SMILES>
C1=CC2=C3C(=C1)C(=O)N(C(=O)C3=CC=C2)CCCCCC(=O)NO

> <PUBCHEM_CACTVS_TPSA>
86.7

> <PUBCHEM_MONOISOTOPIC_WEIGHT>
326.126657

> <PUBCHEM_TOTAL_CHARGE>
0

> <PUBCHEM_HEAVY_ATOM_COUNT>
24

> <PUBCHEM_ATOM_DEF_STEREO_COUNT>
0

> <PUBCHEM_ATOM_UDEF_STEREO_COUNT>
0

> <PUBCHEM_BOND_DEF_STEREO_COUNT>
0

> <PUBCHEM_BOND_UDEF_STEREO_COUNT>
0

> <PUBCHEM_ISOTOPIC_ATOM_COUNT>
0

> <PUBCHEM_COMPONENT_COUNT>
1

> <PUBCHEM_CACTVS_TAUTO_COUNT>
4

> <PUBCHEM_COORDINATE_TYPE>
1
5
255

> <PUBCHEM_BONDANNOTATIONS>
10  11  8
10  12  8
10  16  8
11  18  8
12  19  8
16  20  8
16  21  8
18  22  8
19  23  8
20  23  8
21  22  8

$$$$

