582844
  -OEChem-06241222443D

 11 10  0     0  0  0  0  0  0999 V2000
   -0.0001   -1.6969    1.5972 Br  0  0  0  0  0  0  0  0  0  0  0  0
   -0.0003   -1.6774   -1.6235 Br  0  0  0  0  0  0  0  0  0  0  0  0
    1.3267    1.0775    1.0943 F   0  0  0  0  0  0  0  0  0  0  0  0
    1.3433    1.0903   -1.0850 F   0  0  0  0  0  0  0  0  0  0  0  0
    2.3754   -0.4874    0.0083 F   0  0  0  0  0  0  0  0  0  0  0  0
   -1.3396    1.0955   -1.0814 F   0  0  0  0  0  0  0  0  0  0  0  0
   -2.3754   -0.4871    0.0012 F   0  0  0  0  0  0  0  0  0  0  0  0
   -1.3300    1.0725    1.0978 F   0  0  0  0  0  0  0  0  0  0  0  0
   -0.0001   -0.5582   -0.0063 C   0  0  0  0  0  0  0  0  0  0  0  0
    1.2647    0.2856   -0.0013 C   0  0  0  0  0  0  0  0  0  0  0  0
   -1.2647    0.2858   -0.0012 C   0  0  0  0  0  0  0  0  0  0  0  0
  1  9  1  0  0  0  0
  2  9  1  0  0  0  0
  3 10  1  0  0  0  0
  4 10  1  0  0  0  0
  5 10  1  0  0  0  0
  6 11  1  0  0  0  0
  7 11  1  0  0  0  0
  8 11  1  0  0  0  0
  9 10  1  0  0  0  0
  9 11  1  0  0  0  0
M  END
> <PUBCHEM_COMPOUND_CID>
582844

> <PUBCHEM_CONFORMER_RMSD>
0.4

> <PUBCHEM_CONFORMER_DIVERSEORDER>
1

> <PUBCHEM_MMFF94_PARTIAL_CHARGES>
11
1 -0.23
10 1.02
11 1.02
2 -0.23
3 -0.34
4 -0.34
5 -0.34
6 -0.34
7 -0.34
8 -0.34
9 0.46

> <PUBCHEM_EFFECTIVE_ROTOR_COUNT>
2

> <PUBCHEM_PHARMACOPHORE_FEATURES>
3
1 1 hydrophobe
1 2 hydrophobe
3 1 2 9 hydrophobe

> <PUBCHEM_HEAVY_ATOM_COUNT>
11

> <PUBCHEM_ATOM_DEF_STEREO_COUNT>
0

> <PUBCHEM_ATOM_UDEF_STEREO_COUNT>
0

> <PUBCHEM_BOND_DEF_STEREO_COUNT>
0

> <PUBCHEM_BOND_UDEF_STEREO_COUNT>
0

> <PUBCHEM_ISOTOPIC_ATOM_COUNT>
0

> <PUBCHEM_COMPONENT_COUNT>
1

> <PUBCHEM_CACTVS_TAUTO_COUNT>
1

> <PUBCHEM_CONFORMER_ID>
0008E4BC00000001

> <PUBCHEM_MMFF94_ENERGY>
11.82

> <PUBCHEM_FEATURE_SELFOVERLAP>
16.542

> <PUBCHEM_SHAPE_FINGERPRINT>
12423570 1 14373164724052433687
13024252 1 17844259436208084474
137420 1 14749231261436430823
16945 1 18410575088958260582
21040471 1 18059858316017173962
21922407 69 16843608154444371760
29004967 10 17531239608203697610
5084963 1 18341894090834057575

> <PUBCHEM_SHAPE_MULTIPOLES>
194.62
2.18
1.71
1.62
0
0.49
0.01
-0.52
0
0
0
0
0.7
0

> <PUBCHEM_SHAPE_SELFOVERLAP>
364.177

> <PUBCHEM_SHAPE_VOLUME>
126.6

> <PUBCHEM_COORDINATE_TYPE>
2
5
10

$$$$

