17395641
  -OEChem-06241222512D

 55 57  0     1  0  0  0  0  0999 V2000
    2.0000   -2.0000    0.0000 Cl  0  0  0  0  0  0  0  0  0  0  0  0
    8.0622   -3.5000    0.0000 O   0  0  0  0  0  0  0  0  0  0  0  0
    9.7942   -0.5000    0.0000 O   0  0  0  0  0  0  0  0  0  0  0  0
   11.5263    3.5000    0.0000 O   0  0  0  0  0  0  0  0  0  0  0  0
    6.3301   -2.5000    0.0000 N   0  0  0  0  0  0  0  0  0  0  0  0
    8.9282   -2.0000    0.0000 N   0  0  0  0  0  0  0  0  0  0  0  0
   11.5263   -0.5000    0.0000 N   0  0  0  0  0  0  0  0  0  0  0  0
    5.4641   -2.0000    0.0000 C   0  0  3  0  0  0  0  0  0  0  0  0
    4.5981   -2.5000    0.0000 C   0  0  0  0  0  0  0  0  0  0  0  0
    7.1962   -2.0000    0.0000 C   0  0  0  0  0  0  0  0  0  0  0  0
    5.4641   -1.0000    0.0000 C   0  0  0  0  0  0  0  0  0  0  0  0
    3.7320   -2.0000    0.0000 C   0  0  0  0  0  0  0  0  0  0  0  0
    4.5981   -3.5000    0.0000 C   0  0  0  0  0  0  0  0  0  0  0  0
    8.0622   -2.5000    0.0000 C   0  0  0  0  0  0  0  0  0  0  0  0
    9.7942   -2.5000    0.0000 C   0  0  0  0  0  0  0  0  0  0  0  0
   10.6603   -2.0000    0.0000 C   0  0  0  0  0  0  0  0  0  0  0  0
    2.8660   -2.5000    0.0000 C   0  0  0  0  0  0  0  0  0  0  0  0
    3.7320   -4.0000    0.0000 C   0  0  0  0  0  0  0  0  0  0  0  0
    2.8660   -3.5000    0.0000 C   0  0  0  0  0  0  0  0  0  0  0  0
    9.7942   -3.5000    0.0000 C   0  0  0  0  0  0  0  0  0  0  0  0
   11.5263   -2.5000    0.0000 C   0  0  0  0  0  0  0  0  0  0  0  0
   10.6603   -1.0000    0.0000 C   0  0  0  0  0  0  0  0  0  0  0  0
   10.6603   -4.0000    0.0000 C   0  0  0  0  0  0  0  0  0  0  0  0
   11.5263   -3.5000    0.0000 C   0  0  0  0  0  0  0  0  0  0  0  0
   11.5263    0.5000    0.0000 C   0  0  0  0  0  0  0  0  0  0  0  0
   12.3923    1.0000    0.0000 C   0  0  0  0  0  0  0  0  0  0  0  0
   10.6603    1.0000    0.0000 C   0  0  0  0  0  0  0  0  0  0  0  0
   11.5263    2.5000    0.0000 C   0  0  0  0  0  0  0  0  0  0  0  0
   12.3923    2.0000    0.0000 C   0  0  0  0  0  0  0  0  0  0  0  0
   10.6603    2.0000    0.0000 C   0  0  0  0  0  0  0  0  0  0  0  0
   12.3923    4.0000    0.0000 C   0  0  0  0  0  0  0  0  0  0  0  0
    5.4641   -2.6200    0.0000 H   0  0  0  0  0  0  0  0  0  0  0  0
    6.3301   -3.1200    0.0000 H   0  0  0  0  0  0  0  0  0  0  0  0
    7.5947   -1.5250    0.0000 H   0  0  0  0  0  0  0  0  0  0  0  0
    6.7976   -1.5250    0.0000 H   0  0  0  0  0  0  0  0  0  0  0  0
    6.0841   -1.0000    0.0000 H   0  0  0  0  0  0  0  0  0  0  0  0
    5.4641   -0.3800    0.0000 H   0  0  0  0  0  0  0  0  0  0  0  0
    4.8441   -1.0000    0.0000 H   0  0  0  0  0  0  0  0  0  0  0  0
    3.7320   -1.3800    0.0000 H   0  0  0  0  0  0  0  0  0  0  0  0
    5.1350   -3.8100    0.0000 H   0  0  0  0  0  0  0  0  0  0  0  0
    8.9282   -1.3800    0.0000 H   0  0  0  0  0  0  0  0  0  0  0  0
    3.7320   -4.6200    0.0000 H   0  0  0  0  0  0  0  0  0  0  0  0
    2.3291   -3.8100    0.0000 H   0  0  0  0  0  0  0  0  0  0  0  0
    9.2573   -3.8100    0.0000 H   0  0  0  0  0  0  0  0  0  0  0  0
   12.0632   -2.1900    0.0000 H   0  0  0  0  0  0  0  0  0  0  0  0
   10.6603   -4.6200    0.0000 H   0  0  0  0  0  0  0  0  0  0  0  0
   12.0632   -3.8100    0.0000 H   0  0  0  0  0  0  0  0  0  0  0  0
   12.0632   -0.8100    0.0000 H   0  0  0  0  0  0  0  0  0  0  0  0
   12.9292    0.6900    0.0000 H   0  0  0  0  0  0  0  0  0  0  0  0
   10.1233    0.6900    0.0000 H   0  0  0  0  0  0  0  0  0  0  0  0
   12.9292    2.3100    0.0000 H   0  0  0  0  0  0  0  0  0  0  0  0
   10.1233    2.3100    0.0000 H   0  0  0  0  0  0  0  0  0  0  0  0
   12.7023    3.4631    0.0000 H   0  0  0  0  0  0  0  0  0  0  0  0
   12.9292    4.3100    0.0000 H   0  0  0  0  0  0  0  0  0  0  0  0
   12.0823    4.5369    0.0000 H   0  0  0  0  0  0  0  0  0  0  0  0
  1 17  1  0  0  0  0
  2 14  2  0  0  0  0
  3 22  2  0  0  0  0
  4 28  1  0  0  0  0
  4 31  1  0  0  0  0
  5  8  1  0  0  0  0
  5 10  1  0  0  0  0
  5 33  1  0  0  0  0
  6 14  1  0  0  0  0
  6 15  1  0  0  0  0
  6 41  1  0  0  0  0
  7 22  1  0  0  0  0
  7 25  1  0  0  0  0
  7 48  1  0  0  0  0
  8  9  1  0  0  0  0
  8 11  1  0  0  0  0
  8 32  1  0  0  0  0
  9 12  2  0  0  0  0
  9 13  1  0  0  0  0
 10 14  1  0  0  0  0
 10 34  1  0  0  0  0
 10 35  1  0  0  0  0
 11 36  1  0  0  0  0
 11 37  1  0  0  0  0
 11 38  1  0  0  0  0
 12 17  1  0  0  0  0
 12 39  1  0  0  0  0
 13 18  2  0  0  0  0
 13 40  1  0  0  0  0
 15 16  1  0  0  0  0
 15 20  2  0  0  0  0
 16 21  2  0  0  0  0
 16 22  1  0  0  0  0
 17 19  2  0  0  0  0
 18 19  1  0  0  0  0
 18 42  1  0  0  0  0
 19 43  1  0  0  0  0
 20 23  1  0  0  0  0
 20 44  1  0  0  0  0
 21 24  1  0  0  0  0
 21 45  1  0  0  0  0
 23 24  2  0  0  0  0
 23 46  1  0  0  0  0
 24 47  1  0  0  0  0
 25 26  2  0  0  0  0
 25 27  1  0  0  0  0
 26 29  1  0  0  0  0
 26 49  1  0  0  0  0
 27 30  2  0  0  0  0
 27 50  1  0  0  0  0
 28 29  2  0  0  0  0
 28 30  1  0  0  0  0
 29 51  1  0  0  0  0
 30 52  1  0  0  0  0
 31 53  1  0  0  0  0
 31 54  1  0  0  0  0
 31 55  1  0  0  0  0
M  END
> <PUBCHEM_COMPOUND_CID>
17395641

> <PUBCHEM_COMPOUND_CANONICALIZED>
1

> <PUBCHEM_CACTVS_COMPLEXITY>
582

> <PUBCHEM_CACTVS_HBOND_ACCEPTOR>
4

> <PUBCHEM_CACTVS_HBOND_DONOR>
3

> <PUBCHEM_CACTVS_ROTATABLE_BOND>
8

> <PUBCHEM_CACTVS_SUBSKEYS>
AAADceB7MAAEAAAAAAAAAAAAAAAAAAAAAAAwYMAAAAAAAAABUAAAHgIQAAAADC7BmCYyxoLABACIAiVSUACCCAAlJwAIiIGObsgMZjrF97uUMahk1BHI6ce4yICOAEAAIAACAAAAgABAAAQAAAAAAAAAAA==

> <PUBCHEM_IUPAC_OPENEYE_NAME>
2-[[2-[1-(3-chlorophenyl)ethylamino]acetyl]amino]-N-(4-methoxyphenyl)benzamide

> <PUBCHEM_IUPAC_CAS_NAME>
2-[[2-[1-(3-chlorophenyl)ethylamino]-1-oxoethyl]amino]-N-(4-methoxyphenyl)benzamide

> <PUBCHEM_IUPAC_NAME>
2-[[2-[1-(3-chlorophenyl)ethylamino]acetyl]amino]-N-(4-methoxyphenyl)benzamide

> <PUBCHEM_IUPAC_SYSTEMATIC_NAME>
2-[2-[1-(3-chlorophenyl)ethylamino]ethanoylamino]-N-(4-methoxyphenyl)benzamide

> <PUBCHEM_IUPAC_TRADITIONAL_NAME>
2-[[2-[1-(3-chlorophenyl)ethylamino]acetyl]amino]-N-(4-methoxyphenyl)benzamide

> <PUBCHEM_IUPAC_INCHI>
InChI=1S/C24H24ClN3O3/c1-16(17-6-5-7-18(25)14-17)26-15-23(29)28-22-9-4-3-8-21(22)24(30)27-19-10-12-20(31-2)13-11-19/h3-14,16,26H,15H2,1-2H3,(H,27,30)(H,28,29)

> <PUBCHEM_IUPAC_INCHIKEY>
WTLOEACESGKXIW-UHFFFAOYSA-N

> <PUBCHEM_XLOGP3_AA>
4.6

> <PUBCHEM_EXACT_MASS>
437.150619

> <PUBCHEM_MOLECULAR_FORMULA>
C24H24ClN3O3

> <PUBCHEM_MOLECULAR_WEIGHT>
437.91866

> <PUBCHEM_OPENEYE_CAN_SMILES>
CC(C1=CC(=CC=C1)Cl)NCC(=O)NC2=CC=CC=C2C(=O)NC3=CC=C(C=C3)OC

> <PUBCHEM_OPENEYE_ISO_SMILES>
CC(C1=CC(=CC=C1)Cl)NCC(=O)NC2=CC=CC=C2C(=O)NC3=CC=C(C=C3)OC

> <PUBCHEM_CACTVS_TPSA>
79.5

> <PUBCHEM_MONOISOTOPIC_WEIGHT>
437.150619

> <PUBCHEM_TOTAL_CHARGE>
0

> <PUBCHEM_HEAVY_ATOM_COUNT>
31

> <PUBCHEM_ATOM_DEF_STEREO_COUNT>
0

> <PUBCHEM_ATOM_UDEF_STEREO_COUNT>
1

> <PUBCHEM_BOND_DEF_STEREO_COUNT>
0

> <PUBCHEM_BOND_UDEF_STEREO_COUNT>
0

> <PUBCHEM_ISOTOPIC_ATOM_COUNT>
0

> <PUBCHEM_COMPONENT_COUNT>
1

> <PUBCHEM_CACTVS_TAUTO_COUNT>
29

> <PUBCHEM_COORDINATE_TYPE>
1
5
255

> <PUBCHEM_BONDANNOTATIONS>
12  17  8
13  18  8
15  16  8
15  20  8
16  21  8
17  19  8
18  19  8
20  23  8
21  24  8
23  24  8
25  26  8
25  27  8
26  29  8
27  30  8
28  29  8
28  30  8
8  11  3
9  12  8
9  13  8

$$$$

