17396294
  -OEChem-06241222552D

 43 46  0     1  0  0  0  0  0999 V2000
    4.9718    0.4887    0.0000 S   0  0  0  0  0  0  0  0  0  0  0  0
    9.4050    2.0000    0.0000 O   0  0  0  0  0  0  0  0  0  0  0  0
    6.8069   -0.5000    0.0000 N   0  0  3  0  0  0  0  0  0  0  0  0
    9.4050   -1.0000    0.0000 N   0  0  0  0  0  0  0  0  0  0  0  0
    4.1671   -0.9051    0.0000 N   0  0  0  0  0  0  0  0  0  0  0  0
    8.5390    0.5000    0.0000 N   0  0  0  0  0  0  0  0  0  0  0  0
    5.9409   -1.0000    0.0000 C   0  0  3  0  0  0  0  0  0  0  0  0
    7.6730   -1.0000    0.0000 C   0  0  0  0  0  0  0  0  0  0  0  0
    5.0749   -0.5000    0.0000 C   0  0  0  0  0  0  0  0  0  0  0  0
    5.9409   -2.0000    0.0000 C   0  0  0  0  0  0  0  0  0  0  0  0
    8.5390   -0.5000    0.0000 C   0  0  0  0  0  0  0  0  0  0  0  0
    6.8069    0.5000    0.0000 C   0  0  0  0  0  0  0  0  0  0  0  0
    4.0000    0.6979    0.0000 C   0  0  0  0  0  0  0  0  0  0  0  0
    3.5000   -0.1681    0.0000 C   0  0  0  0  0  0  0  0  0  0  0  0
   10.2710   -0.5000    0.0000 C   0  0  0  0  0  0  0  0  0  0  0  0
   10.2710    0.5000    0.0000 C   0  0  0  0  0  0  0  0  0  0  0  0
    9.4050    1.0000    0.0000 C   0  0  0  0  0  0  0  0  0  0  0  0
   11.1650   -1.0347    0.0000 C   0  0  0  0  0  0  0  0  0  0  0  0
    3.5000    1.5640    0.0000 C   0  0  0  0  0  0  0  0  0  0  0  0
    2.5000   -0.1681    0.0000 C   0  0  0  0  0  0  0  0  0  0  0  0
   11.1650    1.0347    0.0000 C   0  0  0  0  0  0  0  0  0  0  0  0
    2.5000    1.5640    0.0000 C   0  0  0  0  0  0  0  0  0  0  0  0
    2.0000    0.6979    0.0000 C   0  0  0  0  0  0  0  0  0  0  0  0
   12.0710   -0.5208    0.0000 C   0  0  0  0  0  0  0  0  0  0  0  0
   12.0710    0.5208    0.0000 C   0  0  0  0  0  0  0  0  0  0  0  0
    5.9409   -0.3800    0.0000 H   0  0  0  0  0  0  0  0  0  0  0  0
    7.2744   -1.4750    0.0000 H   0  0  0  0  0  0  0  0  0  0  0  0
    8.0715   -1.4750    0.0000 H   0  0  0  0  0  0  0  0  0  0  0  0
    5.3209   -2.0000    0.0000 H   0  0  0  0  0  0  0  0  0  0  0  0
    5.9409   -2.6200    0.0000 H   0  0  0  0  0  0  0  0  0  0  0  0
    6.5609   -2.0000    0.0000 H   0  0  0  0  0  0  0  0  0  0  0  0
    7.4269    0.5000    0.0000 H   0  0  0  0  0  0  0  0  0  0  0  0
    6.8069    1.1200    0.0000 H   0  0  0  0  0  0  0  0  0  0  0  0
    6.1869    0.5000    0.0000 H   0  0  0  0  0  0  0  0  0  0  0  0
    9.4050   -1.6200    0.0000 H   0  0  0  0  0  0  0  0  0  0  0  0
   11.1578   -1.6546    0.0000 H   0  0  0  0  0  0  0  0  0  0  0  0
    3.8100    2.1009    0.0000 H   0  0  0  0  0  0  0  0  0  0  0  0
    2.1900   -0.7050    0.0000 H   0  0  0  0  0  0  0  0  0  0  0  0
   11.1578    1.6546    0.0000 H   0  0  0  0  0  0  0  0  0  0  0  0
    2.1900    2.1009    0.0000 H   0  0  0  0  0  0  0  0  0  0  0  0
    1.3800    0.6979    0.0000 H   0  0  0  0  0  0  0  0  0  0  0  0
   12.6068   -0.8329    0.0000 H   0  0  0  0  0  0  0  0  0  0  0  0
   12.6068    0.8329    0.0000 H   0  0  0  0  0  0  0  0  0  0  0  0
  1  9  1  0  0  0  0
  1 13  1  0  0  0  0
  2 17  2  0  0  0  0
  3  7  1  0  0  0  0
  3  8  1  0  0  0  0
  3 12  1  0  0  0  0
  4 11  1  0  0  0  0
  4 15  1  0  0  0  0
  4 35  1  0  0  0  0
  5  9  2  0  0  0  0
  5 14  1  0  0  0  0
  6 11  2  0  0  0  0
  6 17  1  0  0  0  0
  7  9  1  0  0  0  0
  7 10  1  0  0  0  0
  7 26  1  0  0  0  0
  8 11  1  0  0  0  0
  8 27  1  0  0  0  0
  8 28  1  0  0  0  0
 10 29  1  0  0  0  0
 10 30  1  0  0  0  0
 10 31  1  0  0  0  0
 12 32  1  0  0  0  0
 12 33  1  0  0  0  0
 12 34  1  0  0  0  0
 13 14  1  0  0  0  0
 13 19  2  0  0  0  0
 14 20  2  0  0  0  0
 15 16  1  0  0  0  0
 15 18  2  0  0  0  0
 16 17  1  0  0  0  0
 16 21  2  0  0  0  0
 18 24  1  0  0  0  0
 18 36  1  0  0  0  0
 19 22  1  0  0  0  0
 19 37  1  0  0  0  0
 20 23  1  0  0  0  0
 20 38  1  0  0  0  0
 21 25  1  0  0  0  0
 21 39  1  0  0  0  0
 22 23  2  0  0  0  0
 22 40  1  0  0  0  0
 23 41  1  0  0  0  0
 24 25  2  0  0  0  0
 24 42  1  0  0  0  0
 25 43  1  0  0  0  0
M  END
> <PUBCHEM_COMPOUND_CID>
17396294

> <PUBCHEM_COMPOUND_CANONICALIZED>
1

> <PUBCHEM_CACTVS_COMPLEXITY>
540

> <PUBCHEM_CACTVS_HBOND_ACCEPTOR>
4

> <PUBCHEM_CACTVS_HBOND_DONOR>
1

> <PUBCHEM_CACTVS_ROTATABLE_BOND>
4

> <PUBCHEM_CACTVS_SUBSKEYS>
AAADceB7oABAAAAAAAAAAAAAAAAAAWAAAAAwYIAAAAAAAFiB9AAAHgQQAAAADCjB3gQzwbPIEAisAydydACD8KFlCjhJmD04ZNgIYLrg3ZGUIYhgkADoyccYiACOAAAAAAACAQAAAAAAAAQCAAAAAAAAAA==

> <PUBCHEM_IUPAC_OPENEYE_NAME>
2-[[1-(1,3-benzothiazol-2-yl)ethyl-methyl-amino]methyl]-1H-quinazolin-4-one

> <PUBCHEM_IUPAC_CAS_NAME>
2-[[1-(1,3-benzothiazol-2-yl)ethyl-methylamino]methyl]-1H-quinazolin-4-one

> <PUBCHEM_IUPAC_NAME>
2-[[1-(1,3-benzothiazol-2-yl)ethyl-methylamino]methyl]-1H-quinazolin-4-one

> <PUBCHEM_IUPAC_SYSTEMATIC_NAME>
2-[[1-(1,3-benzothiazol-2-yl)ethyl-methyl-amino]methyl]-1H-quinazolin-4-one

> <PUBCHEM_IUPAC_TRADITIONAL_NAME>
2-[[1-(1,3-benzothiazol-2-yl)ethyl-methyl-amino]methyl]-1H-quinazolin-4-one

> <PUBCHEM_IUPAC_INCHI>
InChI=1S/C19H18N4OS/c1-12(19-21-15-9-5-6-10-16(15)25-19)23(2)11-17-20-14-8-4-3-7-13(14)18(24)22-17/h3-10,12H,11H2,1-2H3,(H,20,22,24)

> <PUBCHEM_IUPAC_INCHIKEY>
JYEMZNNIWTYLEJ-UHFFFAOYSA-N

> <PUBCHEM_XLOGP3_AA>
3.1

> <PUBCHEM_EXACT_MASS>
350.120132

> <PUBCHEM_MOLECULAR_FORMULA>
C19H18N4OS

> <PUBCHEM_MOLECULAR_WEIGHT>
350.43742

> <PUBCHEM_OPENEYE_CAN_SMILES>
CC(C1=NC2=CC=CC=C2S1)N(C)CC3=NC(=O)C4=CC=CC=C4N3

> <PUBCHEM_OPENEYE_ISO_SMILES>
CC(C1=NC2=CC=CC=C2S1)N(C)CC3=NC(=O)C4=CC=CC=C4N3

> <PUBCHEM_CACTVS_TPSA>
85.8

> <PUBCHEM_MONOISOTOPIC_WEIGHT>
350.120132

> <PUBCHEM_TOTAL_CHARGE>
0

> <PUBCHEM_HEAVY_ATOM_COUNT>
25

> <PUBCHEM_ATOM_DEF_STEREO_COUNT>
0

> <PUBCHEM_ATOM_UDEF_STEREO_COUNT>
1

> <PUBCHEM_BOND_DEF_STEREO_COUNT>
0

> <PUBCHEM_BOND_UDEF_STEREO_COUNT>
0

> <PUBCHEM_ISOTOPIC_ATOM_COUNT>
0

> <PUBCHEM_COMPONENT_COUNT>
1

> <PUBCHEM_CACTVS_TAUTO_COUNT>
10

> <PUBCHEM_COORDINATE_TYPE>
1
5
255

> <PUBCHEM_BONDANNOTATIONS>
1  13  8
1  9  8
13  14  8
13  19  8
14  20  8
15  16  8
15  18  8
16  17  8
16  21  8
18  24  8
19  22  8
20  23  8
21  25  8
22  23  8
24  25  8
4  11  8
4  15  8
5  14  8
5  9  8
6  11  8
6  17  8
7  10  3

$$$$

