12777
  -OEChem-06261207213D

 24 24  0     1  0  0  0  0  0999 V2000
    0.2129   -0.7119   -0.0112 O   0  0  0  0  0  0  0  0  0  0  0  0
    1.9635   -2.1289    0.0087 O   0  0  0  0  0  0  0  0  0  0  0  0
   -0.3190    0.5889    0.3286 C   0  0  1  0  0  0  0  0  0  0  0  0
    0.5367    1.7257   -0.2067 C   0  0  0  0  0  0  0  0  0  0  0  0
   -1.7382    0.6602   -0.2191 C   0  0  0  0  0  0  0  0  0  0  0  0
    1.9601    1.5134    0.2662 C   0  0  0  0  0  0  0  0  0  0  0  0
    2.4728    0.1881   -0.2572 C   0  0  0  0  0  0  0  0  0  0  0  0
   -2.6104   -0.4575    0.3463 C   0  0  0  0  0  0  0  0  0  0  0  0
    1.5411   -0.9754   -0.0340 C   0  0  0  0  0  0  0  0  0  0  0  0
   -4.0196   -0.4026   -0.2217 C   0  0  0  0  0  0  0  0  0  0  0  0
   -0.3557    0.6380    1.4244 H   0  0  0  0  0  0  0  0  0  0  0  0
    0.1583    2.6920    0.1444 H   0  0  0  0  0  0  0  0  0  0  0  0
    0.5174    1.7390   -1.3035 H   0  0  0  0  0  0  0  0  0  0  0  0
   -1.7153    0.5662   -1.3124 H   0  0  0  0  0  0  0  0  0  0  0  0
   -2.1830    1.6341    0.0181 H   0  0  0  0  0  0  0  0  0  0  0  0
    1.9942    1.5220    1.3626 H   0  0  0  0  0  0  0  0  0  0  0  0
    2.6028    2.3283   -0.0844 H   0  0  0  0  0  0  0  0  0  0  0  0
    3.4283   -0.0388    0.2288 H   0  0  0  0  0  0  0  0  0  0  0  0
    2.6511    0.2559   -1.3367 H   0  0  0  0  0  0  0  0  0  0  0  0
   -2.6596   -0.3755    1.4384 H   0  0  0  0  0  0  0  0  0  0  0  0
   -2.1830   -1.4394    0.1141 H   0  0  0  0  0  0  0  0  0  0  0  0
   -4.5026    0.5501    0.0182 H   0  0  0  0  0  0  0  0  0  0  0  0
   -4.0091   -0.5185   -1.3102 H   0  0  0  0  0  0  0  0  0  0  0  0
   -4.6298   -1.2078    0.1996 H   0  0  0  0  0  0  0  0  0  0  0  0
  1  3  1  0  0  0  0
  1  9  1  0  0  0  0
  2  9  2  0  0  0  0
  3  4  1  0  0  0  0
  3  5  1  0  0  0  0
  3 11  1  0  0  0  0
  4  6  1  0  0  0  0
  4 12  1  0  0  0  0
  4 13  1  0  0  0  0
  5  8  1  0  0  0  0
  5 14  1  0  0  0  0
  5 15  1  0  0  0  0
  6  7  1  0  0  0  0
  6 16  1  0  0  0  0
  6 17  1  0  0  0  0
  7  9  1  0  0  0  0
  7 18  1  0  0  0  0
  7 19  1  0  0  0  0
  8 10  1  0  0  0  0
  8 20  1  0  0  0  0
  8 21  1  0  0  0  0
 10 22  1  0  0  0  0
 10 23  1  0  0  0  0
 10 24  1  0  0  0  0
M  END
> <PUBCHEM_COMPOUND_CID>
12777

> <PUBCHEM_CONFORMER_RMSD>
0.6

> <PUBCHEM_CONFORMER_DIVERSEORDER>
1
10
15
17
2
14
11
13
16
9
12
5
8
7
4
6
3

> <PUBCHEM_MMFF94_PARTIAL_CHARGES>
5
1 -0.43
2 -0.57
3 0.28
7 0.06
9 0.66

> <PUBCHEM_EFFECTIVE_ROTOR_COUNT>
3

> <PUBCHEM_PHARMACOPHORE_FEATURES>
3
1 10 hydrophobe
1 2 acceptor
6 1 3 4 6 7 9 rings

> <PUBCHEM_HEAVY_ATOM_COUNT>
10

> <PUBCHEM_ATOM_DEF_STEREO_COUNT>
0

> <PUBCHEM_ATOM_UDEF_STEREO_COUNT>
1

> <PUBCHEM_BOND_DEF_STEREO_COUNT>
0

> <PUBCHEM_BOND_UDEF_STEREO_COUNT>
0

> <PUBCHEM_ISOTOPIC_ATOM_COUNT>
0

> <PUBCHEM_COMPONENT_COUNT>
1

> <PUBCHEM_CACTVS_TAUTO_COUNT>
1

> <PUBCHEM_CONFORMER_ID>
000031E900000001

> <PUBCHEM_MMFF94_ENERGY>
9.7523

> <PUBCHEM_FEATURE_SELFOVERLAP>
15.223

> <PUBCHEM_SHAPE_FINGERPRINT>
10219947 1 18341895130227076000
12897270 3 18413106134897922309
12932764 1 17603591794496961569
14128692 85 18264762328159632638
14251717 144 18409453548870517447
14325111 11 18337953381468617537
161256 15 18411984684429693756
16945 1 18411132502725191680
17990270 104 18411701031840968131
19021347 11 18410855421637012438
20201158 50 18342738503137926099
20645477 70 18409454700275421207
20653091 64 18336261340252396232
20871998 22 18117272777637682294
21040471 1 17977945679396369016
21501925 9 18339937003260525290
23402655 69 18409174303308887781
23552333 60 18113614581949984968
23552423 10 18200306753036622736
2748010 2 18266746963759273732
29004967 10 18412823594584770984
528862 383 18410017606529784175
581208 293 18337115553428787221

> <PUBCHEM_SHAPE_MULTIPOLES>
194.06
5
1.75
0.65
5.28
0.29
0.01
0.88
-0.26
-1.39
0
0.05
-0.05
0.09

> <PUBCHEM_SHAPE_SELFOVERLAP>
375.702

> <PUBCHEM_SHAPE_VOLUME>
118

> <PUBCHEM_COORDINATE_TYPE>
2
5
10

$$$$

