5015
  -OEChem-06261200282D

 46 46  0     0  0  0  0  0  0999 V2000
    5.4641   -0.2500    0.0000 O   0  0  0  0  0  0  0  0  0  0  0  0
    3.7320   -0.2500    0.0000 N   0  0  0  0  0  0  0  0  0  0  0  0
    5.4641    1.7500    0.0000 C   0  0  0  0  0  0  0  0  0  0  0  0
    6.3301    2.2500    0.0000 C   0  0  0  0  0  0  0  0  0  0  0  0
    4.9641    2.6160    0.0000 C   0  0  0  0  0  0  0  0  0  0  0  0
    5.9641    0.8840    0.0000 C   0  0  0  0  0  0  0  0  0  0  0  0
    4.5981    1.2500    0.0000 C   0  0  0  0  0  0  0  0  0  0  0  0
    6.3301    3.2500    0.0000 C   0  0  0  0  0  0  0  0  0  0  0  0
    3.9641    2.6160    0.0000 C   0  0  0  0  0  0  0  0  0  0  0  0
    6.9641    0.8840    0.0000 C   0  0  0  0  0  0  0  0  0  0  0  0
    4.5981    0.2500    0.0000 C   0  0  0  0  0  0  0  0  0  0  0  0
    3.7320   -1.2500    0.0000 C   0  0  0  0  0  0  0  0  0  0  0  0
    2.8660   -1.7500    0.0000 C   0  0  0  0  0  0  0  0  0  0  0  0
    4.5981   -1.7500    0.0000 C   0  0  0  0  0  0  0  0  0  0  0  0
    2.8660   -2.7500    0.0000 C   0  0  0  0  0  0  0  0  0  0  0  0
    4.5981   -2.7500    0.0000 C   0  0  0  0  0  0  0  0  0  0  0  0
    2.0000   -1.2500    0.0000 C   0  0  0  0  0  0  0  0  0  0  0  0
    5.4641   -1.2500    0.0000 C   0  0  0  0  0  0  0  0  0  0  0  0
    3.7320   -3.2500    0.0000 C   0  0  0  0  0  0  0  0  0  0  0  0
    6.5422    1.6674    0.0000 H   0  0  0  0  0  0  0  0  0  0  0  0
    6.9407    2.3577    0.0000 H   0  0  0  0  0  0  0  0  0  0  0  0
    5.5467    2.8281    0.0000 H   0  0  0  0  0  0  0  0  0  0  0  0
    4.8564    3.2266    0.0000 H   0  0  0  0  0  0  0  0  0  0  0  0
    5.3815    0.6719    0.0000 H   0  0  0  0  0  0  0  0  0  0  0  0
    6.0718    0.2734    0.0000 H   0  0  0  0  0  0  0  0  0  0  0  0
    4.3860    1.8326    0.0000 H   0  0  0  0  0  0  0  0  0  0  0  0
    3.9875    1.1423    0.0000 H   0  0  0  0  0  0  0  0  0  0  0  0
    6.9641    0.2640    0.0000 H   0  0  0  0  0  0  0  0  0  0  0  0
    7.5841    0.8840    0.0000 H   0  0  0  0  0  0  0  0  0  0  0  0
    6.9641    1.5040    0.0000 H   0  0  0  0  0  0  0  0  0  0  0  0
    3.9641    3.2360    0.0000 H   0  0  0  0  0  0  0  0  0  0  0  0
    3.3441    2.6160    0.0000 H   0  0  0  0  0  0  0  0  0  0  0  0
    3.9641    1.9960    0.0000 H   0  0  0  0  0  0  0  0  0  0  0  0
    6.9501    3.2500    0.0000 H   0  0  0  0  0  0  0  0  0  0  0  0
    6.3301    3.8700    0.0000 H   0  0  0  0  0  0  0  0  0  0  0  0
    5.7101    3.2500    0.0000 H   0  0  0  0  0  0  0  0  0  0  0  0
    3.1951    0.0600    0.0000 H   0  0  0  0  0  0  0  0  0  0  0  0
    2.3291   -3.0600    0.0000 H   0  0  0  0  0  0  0  0  0  0  0  0
    5.1350   -3.0600    0.0000 H   0  0  0  0  0  0  0  0  0  0  0  0
    2.3100   -0.7131    0.0000 H   0  0  0  0  0  0  0  0  0  0  0  0
    1.4631   -0.9400    0.0000 H   0  0  0  0  0  0  0  0  0  0  0  0
    1.6900   -1.7869    0.0000 H   0  0  0  0  0  0  0  0  0  0  0  0
    5.7741   -1.7869    0.0000 H   0  0  0  0  0  0  0  0  0  0  0  0
    6.0010   -0.9400    0.0000 H   0  0  0  0  0  0  0  0  0  0  0  0
    5.1541   -0.7131    0.0000 H   0  0  0  0  0  0  0  0  0  0  0  0
    3.7320   -3.8700    0.0000 H   0  0  0  0  0  0  0  0  0  0  0  0
  1 11  2  0  0  0  0
  2 11  1  0  0  0  0
  2 12  1  0  0  0  0
  2 37  1  0  0  0  0
  3  4  1  0  0  0  0
  3  5  1  0  0  0  0
  3  6  1  0  0  0  0
  3  7  1  0  0  0  0
  4  8  1  0  0  0  0
  4 20  1  0  0  0  0
  4 21  1  0  0  0  0
  5  9  1  0  0  0  0
  5 22  1  0  0  0  0
  5 23  1  0  0  0  0
  6 10  1  0  0  0  0
  6 24  1  0  0  0  0
  6 25  1  0  0  0  0
  7 11  1  0  0  0  0
  7 26  1  0  0  0  0
  7 27  1  0  0  0  0
  8 34  1  0  0  0  0
  8 35  1  0  0  0  0
  8 36  1  0  0  0  0
  9 31  1  0  0  0  0
  9 32  1  0  0  0  0
  9 33  1  0  0  0  0
 10 28  1  0  0  0  0
 10 29  1  0  0  0  0
 10 30  1  0  0  0  0
 12 13  2  0  0  0  0
 12 14  1  0  0  0  0
 13 15  1  0  0  0  0
 13 17  1  0  0  0  0
 14 16  2  0  0  0  0
 14 18  1  0  0  0  0
 15 19  2  0  0  0  0
 15 38  1  0  0  0  0
 16 19  1  0  0  0  0
 16 39  1  0  0  0  0
 17 40  1  0  0  0  0
 17 41  1  0  0  0  0
 17 42  1  0  0  0  0
 18 43  1  0  0  0  0
 18 44  1  0  0  0  0
 18 45  1  0  0  0  0
 19 46  1  0  0  0  0
M  END
> <PUBCHEM_COMPOUND_CID>
5015

> <PUBCHEM_COMPOUND_CANONICALIZED>
1

> <PUBCHEM_CACTVS_COMPLEXITY>
265

> <PUBCHEM_CACTVS_HBOND_ACCEPTOR>
1

> <PUBCHEM_CACTVS_HBOND_DONOR>
1

> <PUBCHEM_CACTVS_ROTATABLE_BOND>
6

> <PUBCHEM_CACTVS_SUBSKEYS>
AAADceB6IAAAAAAAAAAAAAAAAAAAAAAAAAAwAAAAAAAAAAABAAAAHgAQAAAADgiBmAAywILAAACIAiVSUACCAAAhAAAIiAEARIgIIDLAkZGEIAhglADIyAcYgEAPAAACAAACAAAAAAQAAAQAAAAAAAAAAA==

> <PUBCHEM_IUPAC_OPENEYE_NAME>
N-(2,6-dimethylphenyl)-3,3-diethyl-pentanamide

> <PUBCHEM_IUPAC_CAS_NAME>
N-(2,6-dimethylphenyl)-3,3-diethylpentanamide

> <PUBCHEM_IUPAC_NAME>
N-(2,6-dimethylphenyl)-3,3-diethylpentanamide

> <PUBCHEM_IUPAC_SYSTEMATIC_NAME>
N-(2,6-dimethylphenyl)-3,3-diethyl-pentanamide

> <PUBCHEM_IUPAC_TRADITIONAL_NAME>
N-(2,6-dimethylphenyl)-3,3-diethyl-valeramide

> <PUBCHEM_IUPAC_INCHI>
InChI=1S/C17H27NO/c1-6-17(7-2,8-3)12-15(19)18-16-13(4)10-9-11-14(16)5/h9-11H,6-8,12H2,1-5H3,(H,18,19)

> <PUBCHEM_IUPAC_INCHIKEY>
OJYUMAZBURCYCZ-UHFFFAOYSA-N

> <PUBCHEM_XLOGP3>
4.6

> <PUBCHEM_EXACT_MASS>
261.209264

> <PUBCHEM_MOLECULAR_FORMULA>
C17H27NO

> <PUBCHEM_MOLECULAR_WEIGHT>
261.40238

> <PUBCHEM_OPENEYE_CAN_SMILES>
CCC(CC)(CC)CC(=O)NC1=C(C=CC=C1C)C

> <PUBCHEM_OPENEYE_ISO_SMILES>
CCC(CC)(CC)CC(=O)NC1=C(C=CC=C1C)C

> <PUBCHEM_CACTVS_TPSA>
29.1

> <PUBCHEM_MONOISOTOPIC_WEIGHT>
261.209264

> <PUBCHEM_TOTAL_CHARGE>
0

> <PUBCHEM_HEAVY_ATOM_COUNT>
19

> <PUBCHEM_ATOM_DEF_STEREO_COUNT>
0

> <PUBCHEM_ATOM_UDEF_STEREO_COUNT>
0

> <PUBCHEM_BOND_DEF_STEREO_COUNT>
0

> <PUBCHEM_BOND_UDEF_STEREO_COUNT>
0

> <PUBCHEM_ISOTOPIC_ATOM_COUNT>
0

> <PUBCHEM_COMPONENT_COUNT>
1

> <PUBCHEM_CACTVS_TAUTO_COUNT>
3

> <PUBCHEM_COORDINATE_TYPE>
1
5
255

> <PUBCHEM_BONDANNOTATIONS>
12  13  8
12  14  8
13  15  8
14  16  8
15  19  8
16  19  8

$$$$

