12690
  -OEChem-06261207152D

 11 10  0     0  0  0  0  0  0999 V2000
    2.8660    0.0000    0.0000 As  0  0  0  0  0  0  0  0  0  0  0  0
    4.5981    1.0000    0.0000 N   0  0  0  0  0  0  0  0  0  0  0  0
    2.0000    0.5000    0.0000 C   0  0  0  0  0  0  0  0  0  0  0  0
    2.8660   -1.0000    0.0000 C   0  0  0  0  0  0  0  0  0  0  0  0
    3.7320    0.5000    0.0000 C   0  0  0  0  0  0  0  0  0  0  0  0
    2.3100    1.0369    0.0000 H   0  0  0  0  0  0  0  0  0  0  0  0
    1.4631    0.8100    0.0000 H   0  0  0  0  0  0  0  0  0  0  0  0
    1.6900   -0.0369    0.0000 H   0  0  0  0  0  0  0  0  0  0  0  0
    2.2460   -1.0000    0.0000 H   0  0  0  0  0  0  0  0  0  0  0  0
    2.8660   -1.6200    0.0000 H   0  0  0  0  0  0  0  0  0  0  0  0
    3.4860   -1.0000    0.0000 H   0  0  0  0  0  0  0  0  0  0  0  0
  1  3  1  0  0  0  0
  1  4  1  0  0  0  0
  1  5  1  0  0  0  0
  2  5  3  0  0  0  0
  3  6  1  0  0  0  0
  3  7  1  0  0  0  0
  3  8  1  0  0  0  0
  4  9  1  0  0  0  0
  4 10  1  0  0  0  0
  4 11  1  0  0  0  0
M  END
> <PUBCHEM_COMPOUND_CID>
12690

> <PUBCHEM_COMPOUND_CANONICALIZED>
1

> <PUBCHEM_CACTVS_COMPLEXITY>
58.5

> <PUBCHEM_CACTVS_HBOND_ACCEPTOR>
1

> <PUBCHEM_CACTVS_HBOND_DONOR>
0

> <PUBCHEM_CACTVS_ROTATABLE_BOND>
0

> <PUBCHEM_CACTVS_SUBSKEYS>
AAADcYBCAAAAAAAAQAAAAAAAAAAAAAAAAAAAAAAAAAAAAAAAAAAAFAEAAAAAAAAAAAACAAAAAAAQAAAAAAAAAAAAAAAAAAAAAAAAAAAAAAAAAAAAAAAAAAAAAAAAAAAAAAAAAAAAAAAAAAAAAAAAAAAAAA==

> <PUBCHEM_IUPAC_OPENEYE_NAME>
dimethylarsanylformonitrile

> <PUBCHEM_IUPAC_CAS_NAME>
dimethylarsinoformonitrile

> <PUBCHEM_IUPAC_NAME>
dimethylarsanylformonitrile

> <PUBCHEM_IUPAC_SYSTEMATIC_NAME>
dimethylarsanylmethanenitrile

> <PUBCHEM_IUPAC_TRADITIONAL_NAME>
cacodylformonitrile

> <PUBCHEM_IUPAC_INCHI>
InChI=1S/C3H6AsN/c1-4(2)3-5/h1-2H3

> <PUBCHEM_IUPAC_INCHIKEY>
BXASHBJZPLFFPH-UHFFFAOYSA-N

> <PUBCHEM_EXACT_MASS>
130.971621

> <PUBCHEM_MOLECULAR_FORMULA>
C3H6AsN

> <PUBCHEM_MOLECULAR_WEIGHT>
131.00804

> <PUBCHEM_OPENEYE_CAN_SMILES>
C[As](C)C#N

> <PUBCHEM_OPENEYE_ISO_SMILES>
C[As](C)C#N

> <PUBCHEM_CACTVS_TPSA>
23.8

> <PUBCHEM_MONOISOTOPIC_WEIGHT>
130.971621

> <PUBCHEM_TOTAL_CHARGE>
0

> <PUBCHEM_HEAVY_ATOM_COUNT>
5

> <PUBCHEM_ATOM_DEF_STEREO_COUNT>
0

> <PUBCHEM_ATOM_UDEF_STEREO_COUNT>
0

> <PUBCHEM_BOND_DEF_STEREO_COUNT>
0

> <PUBCHEM_BOND_UDEF_STEREO_COUNT>
0

> <PUBCHEM_ISOTOPIC_ATOM_COUNT>
0

> <PUBCHEM_COMPONENT_COUNT>
1

> <PUBCHEM_CACTVS_TAUTO_COUNT>
1

> <PUBCHEM_COORDINATE_TYPE>
1
5
255

$$$$

