17396649
  -OEChem-06241222573D

 44 45  0     1  0  0  0  0  0999 V2000
   -4.6187    1.3558    2.2684 F   0  0  0  0  0  0  0  0  0  0  0  0
   -1.1963   -1.6918    1.2470 O   0  0  0  0  0  0  0  0  0  0  0  0
    4.1843    2.8900   -1.0651 O   0  0  0  0  0  0  0  0  0  0  0  0
    1.0706   -2.7406    0.1199 N   0  0  0  0  0  0  0  0  0  0  0  0
   -1.9186   -1.0428   -0.8894 N   0  0  0  0  0  0  0  0  0  0  0  0
    4.9866    1.2103    0.3817 N   0  0  0  0  0  0  0  0  0  0  0  0
   -0.1214   -2.6341   -0.6926 C   0  0  2  0  0  0  0  0  0  0  0  0
   -1.1301   -1.7403    0.0219 C   0  0  0  0  0  0  0  0  0  0  0  0
    2.0438   -1.7586    0.1851 C   0  0  0  0  0  0  0  0  0  0  0  0
   -0.7062   -4.0189   -0.9328 C   0  0  0  0  0  0  0  0  0  0  0  0
   -2.9567   -0.1232   -0.6069 C   0  0  0  0  0  0  0  0  0  0  0  0
    1.9044   -0.5879   -0.5603 C   0  0  0  0  0  0  0  0  0  0  0  0
    3.1641   -1.9396    0.9963 C   0  0  0  0  0  0  0  0  0  0  0  0
    4.0055    0.2205    0.3162 C   0  0  0  0  0  0  0  0  0  0  0  0
    2.8852    0.4017   -0.4949 C   0  0  0  0  0  0  0  0  0  0  0  0
    4.1449   -0.9501    1.0617 C   0  0  0  0  0  0  0  0  0  0  0  0
   -3.2863    0.1719    0.7159 C   0  0  0  0  0  0  0  0  0  0  0  0
   -3.6504    0.4877   -1.6515 C   0  0  0  0  0  0  0  0  0  0  0  0
   -5.0031    1.6890   -0.0505 C   0  0  0  0  0  0  0  0  0  0  0  0
   -4.3094    1.0782    0.9941 C   0  0  0  0  0  0  0  0  0  0  0  0
   -4.6738    1.3939   -1.3733 C   0  0  0  0  0  0  0  0  0  0  0  0
   -6.0981    2.6584    0.2432 C   0  0  0  0  0  0  0  0  0  0  0  0
    5.0202    2.4409   -0.2879 C   0  0  0  0  0  0  0  0  0  0  0  0
    6.2594    3.2297    0.0539 C   0  0  0  0  0  0  0  0  0  0  0  0
    0.1219   -2.2335   -1.6838 H   0  0  0  0  0  0  0  0  0  0  0  0
    1.1702   -3.5445    0.7305 H   0  0  0  0  0  0  0  0  0  0  0  0
   -1.6013   -3.9629   -1.5615 H   0  0  0  0  0  0  0  0  0  0  0  0
    0.0205   -4.6716   -1.4285 H   0  0  0  0  0  0  0  0  0  0  0  0
   -0.9964   -4.4978    0.0096 H   0  0  0  0  0  0  0  0  0  0  0  0
   -1.7469   -1.2014   -1.8798 H   0  0  0  0  0  0  0  0  0  0  0  0
    1.0528   -0.3913   -1.2028 H   0  0  0  0  0  0  0  0  0  0  0  0
    3.2855   -2.8471    1.5824 H   0  0  0  0  0  0  0  0  0  0  0  0
    2.7076    1.2806   -1.0989 H   0  0  0  0  0  0  0  0  0  0  0  0
    5.0128   -1.1046    1.6979 H   0  0  0  0  0  0  0  0  0  0  0  0
   -2.7957   -0.2581    1.5773 H   0  0  0  0  0  0  0  0  0  0  0  0
   -3.4037    0.2663   -2.6868 H   0  0  0  0  0  0  0  0  0  0  0  0
   -5.2059    1.8610   -2.1977 H   0  0  0  0  0  0  0  0  0  0  0  0
    5.7722    1.0031    0.9950 H   0  0  0  0  0  0  0  0  0  0  0  0
   -6.9504    2.1390    0.6929 H   0  0  0  0  0  0  0  0  0  0  0  0
   -5.7474    3.4330    0.9333 H   0  0  0  0  0  0  0  0  0  0  0  0
   -6.4499    3.1633   -0.6628 H   0  0  0  0  0  0  0  0  0  0  0  0
    6.2647    4.1712   -0.5022 H   0  0  0  0  0  0  0  0  0  0  0  0
    6.2737    3.4493    1.1251 H   0  0  0  0  0  0  0  0  0  0  0  0
    7.1506    2.6551   -0.2138 H   0  0  0  0  0  0  0  0  0  0  0  0
  1 20  1  0  0  0  0
  2  8  2  0  0  0  0
  3 23  2  0  0  0  0
  4  7  1  0  0  0  0
  4  9  1  0  0  0  0
  4 26  1  0  0  0  0
  5  8  1  0  0  0  0
  5 11  1  0  0  0  0
  5 30  1  0  0  0  0
  6 14  1  0  0  0  0
  6 23  1  0  0  0  0
  6 38  1  0  0  0  0
  7  8  1  0  0  0  0
  7 10  1  0  0  0  0
  7 25  1  0  0  0  0
  9 12  2  0  0  0  0
  9 13  1  0  0  0  0
 10 27  1  0  0  0  0
 10 28  1  0  0  0  0
 10 29  1  0  0  0  0
 11 17  2  0  0  0  0
 11 18  1  0  0  0  0
 12 15  1  0  0  0  0
 12 31  1  0  0  0  0
 13 16  2  0  0  0  0
 13 32  1  0  0  0  0
 14 15  2  0  0  0  0
 14 16  1  0  0  0  0
 15 33  1  0  0  0  0
 16 34  1  0  0  0  0
 17 20  1  0  0  0  0
 17 35  1  0  0  0  0
 18 21  2  0  0  0  0
 18 36  1  0  0  0  0
 19 20  2  0  0  0  0
 19 21  1  0  0  0  0
 19 22  1  0  0  0  0
 21 37  1  0  0  0  0
 22 39  1  0  0  0  0
 22 40  1  0  0  0  0
 22 41  1  0  0  0  0
 23 24  1  0  0  0  0
 24 42  1  0  0  0  0
 24 43  1  0  0  0  0
 24 44  1  0  0  0  0
M  END
> <PUBCHEM_COMPOUND_CID>
17396649

> <PUBCHEM_CONFORMER_RMSD>
0.8

> <PUBCHEM_CONFORMER_DIVERSEORDER>
1
151
77
185
127
168
100
86
7
38
195
97
214
148
95
75
92
82
29
4
10
182
192
174
63
20
81
179
87
58
183
164
115
178
21
121
45
133
76
124
118
101
150
145
175
109
205
171
8
206
35
24
189
166
210
93
203
154
30
5
140
170
169
91
186
149
34
108
165
116
73
85
18
110
16
90
6
142
187
11
157
104
126
47
60
15
184
71
99
113
88
201
132
23
147
25
161
51
43
27
50
9
162
94
173
67
111
137
159
135
42
74
61
191
37
119
66
163
53
200
176
54
153
12
172
26
167
106
83
190
78
207
98
96
62
41
146
64
102
123
193
68
55
160
131
120
155
143
22
57
65
40
46
139
19
89
69
105
13
33
144
56
198
129
36
213
194
196
14
212
199
209
32
211
158
128
72
59
138
107
70
48
31
112
202
28
84
188
17
177
197
156
49
141
208
52
204
79
152
44
3
103
134
117
125
136
181
2
80
114
39
122
180
130

> <PUBCHEM_MMFF94_PARTIAL_CHARGES>
33
1 -0.19
11 0.12
12 -0.15
13 -0.15
14 0.12
15 -0.15
16 -0.15
17 -0.15
18 -0.15
19 -0.14
2 -0.57
20 0.19
21 -0.15
22 0.14
23 0.57
24 0.06
26 0.4
3 -0.57
30 0.37
31 0.15
32 0.15
33 0.15
34 0.15
35 0.15
36 0.15
37 0.15
38 0.37
4 -0.87
5 -0.55
6 -0.55
7 0.43
8 0.57
9 0.1

> <PUBCHEM_EFFECTIVE_ROTOR_COUNT>
7

> <PUBCHEM_PHARMACOPHORE_FEATURES>
8
1 2 acceptor
1 3 acceptor
1 4 cation
1 4 donor
1 5 donor
1 6 donor
6 11 17 18 19 20 21 rings
6 9 12 13 14 15 16 rings

> <PUBCHEM_HEAVY_ATOM_COUNT>
24

> <PUBCHEM_ATOM_DEF_STEREO_COUNT>
0

> <PUBCHEM_ATOM_UDEF_STEREO_COUNT>
1

> <PUBCHEM_BOND_DEF_STEREO_COUNT>
0

> <PUBCHEM_BOND_UDEF_STEREO_COUNT>
0

> <PUBCHEM_ISOTOPIC_ATOM_COUNT>
0

> <PUBCHEM_COMPONENT_COUNT>
1

> <PUBCHEM_CACTVS_TAUTO_COUNT>
4

> <PUBCHEM_CONFORMER_ID>
010973A900000001

> <PUBCHEM_MMFF94_ENERGY>
76.9782

> <PUBCHEM_FEATURE_SELFOVERLAP>
40.594

> <PUBCHEM_SHAPE_FINGERPRINT>
100830 2 17842827825215568836
10763959 59 18198060481257486286
10928967 22 10591757692705991832
10937287 8 18408606941838880550
11135609 201 18263921046950422090
12107183 9 18341347647469090650
12390115 104 18268422443882152518
12422481 6 17346330267285495108
12760667 363 8935010273537996813
12788726 201 17749382719392077608
13103583 49 12391518641111873887
13540713 5 18268169590715929282
13590594 115 17471001953212059738
13911852 28 9511455632958212613
14251764 38 18125162885874158629
14251764 75 18411416181205098724
14576447 43 8718826522695112370
14848178 5 8935002542681195020
14848178 96 18408328782740030472
15163728 17 17968085421957992582
15188451 53 14908169838472774297
15238133 3 18187658998537985712
15342168 16 18336266833679201991
15475509 8 18263073487855343190
155225 6 18411132550128944909
1768 23 17750218352977439033
17810953 82 18341048609621903180
17834072 32 18411702050201885078
20238998 120 17544762231722645287
20621476 21 11742468114722997720
21033648 144 18202012022820772991
21033650 10 15864341471913568763
21388113 180 18199476622016771493
21401589 2 18271804588455858675
22122407 14 18195238048116219025
22849339 104 15358281315882604781
245318 6 18272356564589094932
270888 7 18409450275863020036
2748736 6 18336557036077405184
283562 15 18125168125734688407
2838139 119 18341904033683393614
3472631 163 18260831522666861861
397830 11 18196635497904942129
474 4 18263085577518153763
484985 159 9366809372202625623
5104073 3 17989214720156310882
6034566 193 18335979796719615477
6058803 2 18196394541259947802
633830 44 18114177600865866151
636775 72 17690000030261723672
7808743 9 18337393717191337138
7970288 3 9727628406134551805
88748 71 8862940589251390059
960060 61 6915678000274981955

> <PUBCHEM_SHAPE_MULTIPOLES>
459.95
14.51
4.21
1.34
0.15
0.96
-0.21
-18.58
-1.43
3.09
0.73
-1.39
-0.13
-1.58

> <PUBCHEM_SHAPE_SELFOVERLAP>
970.457

> <PUBCHEM_SHAPE_VOLUME>
259.1

> <PUBCHEM_COORDINATE_TYPE>
2
5
10

$$$$

