12654
  -OEChem-06261207123D

 29 29  0     0  0  0  0  0  0999 V2000
   -0.9788    2.8891   -0.0037 O   0  0  0  0  0  0  0  0  0  0  0  0
    2.7570    0.1069    0.0041 N   0  0  0  0  0  0  0  0  0  0  0  0
   -1.5569   -1.7328    0.0065 N   0  0  0  0  0  0  0  0  0  0  0  0
    0.6125   -0.8421    0.0056 N   0  0  0  0  0  0  0  0  0  0  0  0
   -1.3064    0.5987    0.0016 N   0  0  0  0  0  0  0  0  0  0  0  0
    0.9008    1.5401    0.0006 N   0  0  0  0  0  0  0  0  0  0  0  0
    3.4086   -1.1799    0.0068 C   0  0  0  0  0  0  0  0  0  0  0  0
   -2.9826   -1.6316    0.0055 C   0  0  0  0  0  0  0  0  0  0  0  0
    1.3805    0.2736    0.0035 C   0  0  0  0  0  0  0  0  0  0  0  0
   -0.7090   -0.6038    0.0043 C   0  0  0  0  0  0  0  0  0  0  0  0
    4.9146   -1.0027   -0.0157 C   0  0  0  0  0  0  0  0  0  0  0  0
   -3.6044   -3.0148   -0.0139 C   0  0  0  0  0  0  0  0  0  0  0  0
   -0.4394    1.6241   -0.0004 C   0  0  0  0  0  0  0  0  0  0  0  0
   -2.3966    2.9750   -0.0047 C   0  0  0  0  0  0  0  0  0  0  0  0
    3.1258   -1.7445    0.9026 H   0  0  0  0  0  0  0  0  0  0  0  0
    3.1032   -1.7605   -0.8712 H   0  0  0  0  0  0  0  0  0  0  0  0
   -3.3265   -1.0758   -0.8746 H   0  0  0  0  0  0  0  0  0  0  0  0
   -3.3285   -1.0975    0.8980 H   0  0  0  0  0  0  0  0  0  0  0  0
    3.3176    0.9515    0.0041 H   0  0  0  0  0  0  0  0  0  0  0  0
   -1.1026   -2.6390    0.0106 H   0  0  0  0  0  0  0  0  0  0  0  0
    5.2332   -0.4560   -0.9097 H   0  0  0  0  0  0  0  0  0  0  0  0
    5.2578   -0.4409    0.8597 H   0  0  0  0  0  0  0  0  0  0  0  0
    5.4141   -1.9764   -0.0142 H   0  0  0  0  0  0  0  0  0  0  0  0
   -3.2974   -3.5721   -0.9055 H   0  0  0  0  0  0  0  0  0  0  0  0
   -3.3012   -3.5952    0.8641 H   0  0  0  0  0  0  0  0  0  0  0  0
   -4.6964   -2.9429   -0.0153 H   0  0  0  0  0  0  0  0  0  0  0  0
   -2.8185    2.5168   -0.9056 H   0  0  0  0  0  0  0  0  0  0  0  0
   -2.6700    4.0344   -0.0075 H   0  0  0  0  0  0  0  0  0  0  0  0
   -2.8195    2.5211    0.8979 H   0  0  0  0  0  0  0  0  0  0  0  0
  1 13  1  0  0  0  0
  1 14  1  0  0  0  0
  2  7  1  0  0  0  0
  2  9  1  0  0  0  0
  2 19  1  0  0  0  0
  3  8  1  0  0  0  0
  3 10  1  0  0  0  0
  3 20  1  0  0  0  0
  4  9  2  0  0  0  0
  4 10  1  0  0  0  0
  5 10  2  0  0  0  0
  5 13  1  0  0  0  0
  6  9  1  0  0  0  0
  6 13  2  0  0  0  0
  7 11  1  0  0  0  0
  7 15  1  0  0  0  0
  7 16  1  0  0  0  0
  8 12  1  0  0  0  0
  8 17  1  0  0  0  0
  8 18  1  0  0  0  0
 11 21  1  0  0  0  0
 11 22  1  0  0  0  0
 11 23  1  0  0  0  0
 12 24  1  0  0  0  0
 12 25  1  0  0  0  0
 12 26  1  0  0  0  0
 14 27  1  0  0  0  0
 14 28  1  0  0  0  0
 14 29  1  0  0  0  0
M  END
> <PUBCHEM_COMPOUND_CID>
12654

> <PUBCHEM_CONFORMER_RMSD>
0.6

> <PUBCHEM_CONFORMER_DIVERSEORDER>
1
17
12
14
11
18
7
23
19
4
13
16
21
20
3
9
10
2
8
24
15
22
5
6

> <PUBCHEM_MMFF94_PARTIAL_CHARGES>
14
1 -0.36
10 0.72
13 0.7
14 0.28
19 0.4
2 -0.87
20 0.4
3 -0.87
4 -0.62
5 -0.62
6 -0.62
7 0.37
8 0.37
9 0.72

> <PUBCHEM_EFFECTIVE_ROTOR_COUNT>
5

> <PUBCHEM_PHARMACOPHORE_FEATURES>
5
1 2 donor
1 3 donor
4 2 4 6 9 cation
4 3 4 5 10 cation
6 4 5 6 9 10 13 rings

> <PUBCHEM_HEAVY_ATOM_COUNT>
14

> <PUBCHEM_ATOM_DEF_STEREO_COUNT>
0

> <PUBCHEM_ATOM_UDEF_STEREO_COUNT>
0

> <PUBCHEM_BOND_DEF_STEREO_COUNT>
0

> <PUBCHEM_BOND_UDEF_STEREO_COUNT>
0

> <PUBCHEM_ISOTOPIC_ATOM_COUNT>
0

> <PUBCHEM_COMPONENT_COUNT>
1

> <PUBCHEM_CACTVS_TAUTO_COUNT>
5

> <PUBCHEM_CONFORMER_ID>
0000316E00000001

> <PUBCHEM_MMFF94_ENERGY>
36.71

> <PUBCHEM_FEATURE_SELFOVERLAP>
25.414

> <PUBCHEM_SHAPE_FINGERPRINT>
12032990 46 18339361846899655411
13052359 8 18268716189316657477
13380535 76 17974574898604099308
14178000 15 18120655721797666739
15042514 8 18339639074126830035
15442244 35 18192706757531582987
17539 30 18337120028905912453
193761 8 18410856521064900260
20645477 70 17836659526302418255
20671657 53 18192989318913720103
20711985 365 18411418410176574284
20871998 184 18187085078774093998
20871998 22 18265899046878136347
21296965 67 18338238150252701571
21426921 1 18410572929169790574
21478907 32 18411421721897539939
221490 88 17621597216314422099
23402539 116 18263374736085661005
23530152 11 17906733957655524693
23557571 272 18188202212979590134
23558518 356 18343861113268858872
23559900 14 18117563058167729086
2748010 2 18265348217496737981
3091708 16 9422073042496122833
366044 4 18051412065193068192
54173680 148 18410856577109867561
68521 5 18411417310638657183
7364860 26 17617658761357315043
81228 2 18343021086042236369
9709674 26 18116996791919320006

> <PUBCHEM_SHAPE_MULTIPOLES>
257.34
6.69
3.53
0.58
6.84
1.43
0
-5.53
-0.03
-4.87
-0.01
0
-0.02
0

> <PUBCHEM_SHAPE_SELFOVERLAP>
508.231

> <PUBCHEM_SHAPE_VOLUME>
150.5

> <PUBCHEM_COORDINATE_TYPE>
2
5
10

$$$$

