13483
  -OEChem-06261214403D

 48 49  0     0  0  0  0  0  0999 V2000
    2.6592    0.0014   -2.4243 Cl  0  0  0  0  0  0  0  0  0  0  0  0
   -0.7339    0.0026   -0.4716 O   0  0  0  0  0  0  0  0  0  0  0  0
   -0.0393   -0.9530   -2.4423 O   0  0  0  0  0  0  0  0  0  0  0  0
   -4.3803   -0.1467    0.0460 N   0  0  0  0  0  0  0  0  0  0  0  0
   -2.9796    0.1569    0.3375 C   0  0  0  0  0  0  0  0  0  0  0  0
    1.6318   -0.0243   -0.8953 C   0  0  0  0  0  0  0  0  0  0  0  0
   -2.0798   -0.3277   -0.7881 C   0  0  0  0  0  0  0  0  0  0  0  0
   -4.5665   -1.5873   -0.1234 C   0  0  0  0  0  0  0  0  0  0  0  0
   -5.2451    0.3587    1.1116 C   0  0  0  0  0  0  0  0  0  0  0  0
    1.6456    1.3802   -0.2601 C   0  0  0  0  0  0  0  0  0  0  0  0
    2.2391   -1.1402   -0.0251 C   0  0  0  0  0  0  0  0  0  0  0  0
    0.2131   -0.3693   -1.3942 C   0  0  0  0  0  0  0  0  0  0  0  0
   -6.0044   -1.9159   -0.4873 C   0  0  0  0  0  0  0  0  0  0  0  0
   -5.0648    1.8551    1.3017 C   0  0  0  0  0  0  0  0  0  0  0  0
    1.5689    1.4741    1.1052 C   0  0  0  0  0  0  0  0  0  0  0  0
    3.5523   -1.0258    0.3535 C   0  0  0  0  0  0  0  0  0  0  0  0
    1.7344    2.4662   -1.0917 C   0  0  0  0  0  0  0  0  0  0  0  0
    1.4380   -2.1950    0.3301 C   0  0  0  0  0  0  0  0  0  0  0  0
    1.5817    2.7449    1.6800 C   0  0  0  0  0  0  0  0  0  0  0  0
    4.1025   -2.0364    1.1419 C   0  0  0  0  0  0  0  0  0  0  0  0
    1.7473    3.7370   -0.5166 C   0  0  0  0  0  0  0  0  0  0  0  0
    1.9883   -3.2055    1.1187 C   0  0  0  0  0  0  0  0  0  0  0  0
    1.6709    3.8762    0.8693 C   0  0  0  0  0  0  0  0  0  0  0  0
    3.3206   -3.1261    1.5245 C   0  0  0  0  0  0  0  0  0  0  0  0
   -2.8024    1.2350    0.4190 H   0  0  0  0  0  0  0  0  0  0  0  0
   -2.6541   -0.2827    1.2901 H   0  0  0  0  0  0  0  0  0  0  0  0
   -2.3594    0.1468   -1.7366 H   0  0  0  0  0  0  0  0  0  0  0  0
   -2.1056   -1.4145   -0.9011 H   0  0  0  0  0  0  0  0  0  0  0  0
   -3.9847   -1.9678   -0.9669 H   0  0  0  0  0  0  0  0  0  0  0  0
   -4.2686   -2.1506    0.7697 H   0  0  0  0  0  0  0  0  0  0  0  0
   -6.2993    0.2188    0.8512 H   0  0  0  0  0  0  0  0  0  0  0  0
   -5.0674   -0.1570    2.0638 H   0  0  0  0  0  0  0  0  0  0  0  0
   -6.6823   -1.8306    0.3675 H   0  0  0  0  0  0  0  0  0  0  0  0
   -6.3738   -1.2807   -1.2998 H   0  0  0  0  0  0  0  0  0  0  0  0
   -6.0683   -2.9545   -0.8315 H   0  0  0  0  0  0  0  0  0  0  0  0
   -4.1371    2.1027    1.8268 H   0  0  0  0  0  0  0  0  0  0  0  0
   -5.0922    2.3940    0.3483 H   0  0  0  0  0  0  0  0  0  0  0  0
   -5.8823    2.2459    1.9186 H   0  0  0  0  0  0  0  0  0  0  0  0
    1.4722    0.6154    1.7601 H   0  0  0  0  0  0  0  0  0  0  0  0
    4.1733   -0.1812    0.0727 H   0  0  0  0  0  0  0  0  0  0  0  0
    1.7493    2.4093   -2.1736 H   0  0  0  0  0  0  0  0  0  0  0  0
    0.3998   -2.3039    0.0428 H   0  0  0  0  0  0  0  0  0  0  0  0
    1.5154    2.8540    2.7586 H   0  0  0  0  0  0  0  0  0  0  0  0
    5.1391   -1.9737    1.4598 H   0  0  0  0  0  0  0  0  0  0  0  0
    1.8056    4.6189   -1.1479 H   0  0  0  0  0  0  0  0  0  0  0  0
    1.3801   -4.0544    1.4175 H   0  0  0  0  0  0  0  0  0  0  0  0
    1.6768    4.8659    1.3167 H   0  0  0  0  0  0  0  0  0  0  0  0
    3.7488   -3.9126    2.1389 H   0  0  0  0  0  0  0  0  0  0  0  0
  1  6  1  0  0  0  0
  2  7  1  0  0  0  0
  2 12  1  0  0  0  0
  3 12  2  0  0  0  0
  4  5  1  0  0  0  0
  4  8  1  0  0  0  0
  4  9  1  0  0  0  0
  5  7  1  0  0  0  0
  5 25  1  0  0  0  0
  5 26  1  0  0  0  0
  6 10  1  0  0  0  0
  6 11  1  0  0  0  0
  6 12  1  0  0  0  0
  7 27  1  0  0  0  0
  7 28  1  0  0  0  0
  8 13  1  0  0  0  0
  8 29  1  0  0  0  0
  8 30  1  0  0  0  0
  9 14  1  0  0  0  0
  9 31  1  0  0  0  0
  9 32  1  0  0  0  0
 10 15  2  0  0  0  0
 10 17  1  0  0  0  0
 11 16  2  0  0  0  0
 11 18  1  0  0  0  0
 13 33  1  0  0  0  0
 13 34  1  0  0  0  0
 13 35  1  0  0  0  0
 14 36  1  0  0  0  0
 14 37  1  0  0  0  0
 14 38  1  0  0  0  0
 15 19  1  0  0  0  0
 15 39  1  0  0  0  0
 16 20  1  0  0  0  0
 16 40  1  0  0  0  0
 17 21  2  0  0  0  0
 17 41  1  0  0  0  0
 18 22  2  0  0  0  0
 18 42  1  0  0  0  0
 19 23  2  0  0  0  0
 19 43  1  0  0  0  0
 20 24  2  0  0  0  0
 20 44  1  0  0  0  0
 21 23  1  0  0  0  0
 21 45  1  0  0  0  0
 22 24  1  0  0  0  0
 22 46  1  0  0  0  0
 23 47  1  0  0  0  0
 24 48  1  0  0  0  0
M  END
> <PUBCHEM_COMPOUND_CID>
13483

> <PUBCHEM_CONFORMER_RMSD>
1

> <PUBCHEM_CONFORMER_DIVERSEORDER>
1
30
51
18
55
13
7
38
22
49
21
53
23
59
43
52
54
35
58
16
31
44
6
10
65
28
62
69
67
36
70
34
46
9
61
29
63
39
25
72
50
2
64
68
14
33
56
47
48
60
3
11
15
5
41
17
27
32
19
42
57
66
45
26
20
24
4
71
40
12
37
8

> <PUBCHEM_MMFF94_PARTIAL_CHARGES>
32
1 -0.29
10 -0.14
11 -0.14
12 0.66
15 -0.15
16 -0.15
17 -0.15
18 -0.15
19 -0.15
2 -0.43
20 -0.15
21 -0.15
22 -0.15
23 -0.15
24 -0.15
3 -0.57
39 0.15
4 -0.81
40 0.15
41 0.15
42 0.15
43 0.15
44 0.15
45 0.15
46 0.15
47 0.15
48 0.15
5 0.27
6 0.64
7 0.28
8 0.27
9 0.27

> <PUBCHEM_EFFECTIVE_ROTOR_COUNT>
9

> <PUBCHEM_PHARMACOPHORE_FEATURES>
4
1 3 acceptor
1 4 cation
6 10 15 17 19 21 23 rings
6 11 16 18 20 22 24 rings

> <PUBCHEM_HEAVY_ATOM_COUNT>
24

> <PUBCHEM_ATOM_DEF_STEREO_COUNT>
0

> <PUBCHEM_ATOM_UDEF_STEREO_COUNT>
0

> <PUBCHEM_BOND_DEF_STEREO_COUNT>
0

> <PUBCHEM_BOND_UDEF_STEREO_COUNT>
0

> <PUBCHEM_ISOTOPIC_ATOM_COUNT>
0

> <PUBCHEM_COMPONENT_COUNT>
1

> <PUBCHEM_CACTVS_TAUTO_COUNT>
1

> <PUBCHEM_CONFORMER_ID>
000034AB00000001

> <PUBCHEM_MMFF94_ENERGY>
70.5134

> <PUBCHEM_FEATURE_SELFOVERLAP>
20.297

> <PUBCHEM_SHAPE_FINGERPRINT>
10366900 7 18201146672957576431
11405975 8 18410007750476586985
12107183 9 18194116550645332657
12403259 118 17822010922132170517
12633257 1 18261946466560680745
13004483 165 17909556390855367290
13103583 49 18264209286833264363
13134695 92 18267887127226029060
13533116 47 18343021052537338995
13583140 156 18340219535326705263
13965767 371 17676785213821145984
14950920 106 18195218136894982299
14955137 171 18113897169782330102
15238133 3 18265318694039244761
15420108 30 17677630686902737100
17809404 112 14851890313650777169
17868525 174 18340770467814393625
17980427 23 17169013143111259476
17980427 26 18267028254242204396
18681886 176 17603855676728322724
19078846 21 18334851774972503461
20775530 9 17271170048301456626
21033648 29 16299237971990137851
2255824 54 18339075999656248014
23558518 356 17688314482449231374
23559900 14 17917712349451921079
345986 75 17842284953742840282
394222 165 18115585916088553896
5104073 3 18261945259986042619
5895379 119 16951665052045576489
6086070 43 18336556001295813517
6442390 28 17766273176504285186
6786 2 17697019354846006356
7097593 13 18337957886868426447
8509985 295 18266171923842218209
9841814 1 18336258011425764766
9999458 23 18196655099175559020

> <PUBCHEM_SHAPE_MULTIPOLES>
479.06
9.91
4.42
1.85
21.55
2.46
0.69
-4.8
-2.73
-4.52
-1.99
-1.07
0.04
-2.1

> <PUBCHEM_SHAPE_SELFOVERLAP>
992.519

> <PUBCHEM_SHAPE_VOLUME>
274.5

> <PUBCHEM_COORDINATE_TYPE>
2
5
10

$$$$

