17395807
  -OEChem-06241222523D

 43 45  0     1  0  0  0  0  0999 V2000
    5.4345    2.8725    0.6161 F   0  0  0  0  0  0  0  0  0  0  0  0
    2.7066   -1.8471   -0.1223 O   0  0  0  0  0  0  0  0  0  0  0  0
    0.4776   -3.0618    0.8733 O   0  0  0  0  0  0  0  0  0  0  0  0
   -3.1935   -1.0119   -0.1612 N   0  0  0  0  0  0  0  0  0  0  0  0
   -0.8298   -1.5420   -0.3579 N   0  0  0  0  0  0  0  0  0  0  0  0
   -4.2977   -1.3072    0.5455 N   0  0  0  0  0  0  0  0  0  0  0  0
   -3.2813   -0.0428   -1.2295 C   0  0  0  0  0  0  0  0  0  0  0  0
   -2.0835   -1.6961    0.2394 C   0  0  0  0  0  0  0  0  0  0  0  0
    1.5088   -1.7845   -0.8799 C   0  0  2  0  0  0  0  0  0  0  0  0
   -3.0093    1.3506   -0.7307 C   0  0  0  0  0  0  0  0  0  0  0  0
    0.3349   -2.2136   -0.0023 C   0  0  0  0  0  0  0  0  0  0  0  0
   -2.4899   -2.4940    1.2809 C   0  0  0  0  0  0  0  0  0  0  0  0
    1.6453   -2.6718   -2.1085 C   0  0  0  0  0  0  0  0  0  0  0  0
   -3.8618   -2.2131    1.4249 C   0  0  0  0  0  0  0  0  0  0  0  0
   -1.7065    1.8493   -0.7298 C   0  0  0  0  0  0  0  0  0  0  0  0
   -4.0600    2.1441   -0.2696 C   0  0  0  0  0  0  0  0  0  0  0  0
    3.3869   -0.6703    0.0617 C   0  0  0  0  0  0  0  0  0  0  0  0
   -1.4543    3.1409   -0.2677 C   0  0  0  0  0  0  0  0  0  0  0  0
   -3.8077    3.4358    0.1924 C   0  0  0  0  0  0  0  0  0  0  0  0
   -2.5048    3.9341    0.1933 C   0  0  0  0  0  0  0  0  0  0  0  0
    2.7685    0.3988    0.7100 C   0  0  0  0  0  0  0  0  0  0  0  0
    4.6973   -0.5426   -0.3994 C   0  0  0  0  0  0  0  0  0  0  0  0
    3.4601    1.5954    0.8973 C   0  0  0  0  0  0  0  0  0  0  0  0
    5.3891    0.6542   -0.2122 C   0  0  0  0  0  0  0  0  0  0  0  0
    4.7703    1.7232    0.4362 C   0  0  0  0  0  0  0  0  0  0  0  0
   -4.2875   -0.1082   -1.6628 H   0  0  0  0  0  0  0  0  0  0  0  0
   -2.5932   -0.3240   -2.0339 H   0  0  0  0  0  0  0  0  0  0  0  0
    1.3295   -0.7615   -1.2393 H   0  0  0  0  0  0  0  0  0  0  0  0
   -0.7849   -0.8930   -1.1364 H   0  0  0  0  0  0  0  0  0  0  0  0
   -1.8972   -3.1835    1.8633 H   0  0  0  0  0  0  0  0  0  0  0  0
    0.7365   -2.6526   -2.7181 H   0  0  0  0  0  0  0  0  0  0  0  0
    2.4919   -2.3508   -2.7244 H   0  0  0  0  0  0  0  0  0  0  0  0
    1.8377   -3.7107   -1.8177 H   0  0  0  0  0  0  0  0  0  0  0  0
   -4.5618   -2.6305    2.1342 H   0  0  0  0  0  0  0  0  0  0  0  0
   -0.8757    1.2557   -1.0974 H   0  0  0  0  0  0  0  0  0  0  0  0
   -5.0794    1.7676   -0.2646 H   0  0  0  0  0  0  0  0  0  0  0  0
   -0.4402    3.5300   -0.2696 H   0  0  0  0  0  0  0  0  0  0  0  0
   -4.6255    4.0536    0.5514 H   0  0  0  0  0  0  0  0  0  0  0  0
   -2.3086    4.9401    0.5525 H   0  0  0  0  0  0  0  0  0  0  0  0
    1.7513    0.3114    1.0823 H   0  0  0  0  0  0  0  0  0  0  0  0
    5.1836   -1.3719   -0.9056 H   0  0  0  0  0  0  0  0  0  0  0  0
    2.9793    2.4272    1.4035 H   0  0  0  0  0  0  0  0  0  0  0  0
    6.4091    0.7540   -0.5711 H   0  0  0  0  0  0  0  0  0  0  0  0
  1 25  1  0  0  0  0
  2  9  1  0  0  0  0
  2 17  1  0  0  0  0
  3 11  2  0  0  0  0
  4  6  1  0  0  0  0
  4  7  1  0  0  0  0
  4  8  1  0  0  0  0
  5  8  1  0  0  0  0
  5 11  1  0  0  0  0
  5 29  1  0  0  0  0
  6 14  2  0  0  0  0
  7 10  1  0  0  0  0
  7 26  1  0  0  0  0
  7 27  1  0  0  0  0
  8 12  2  0  0  0  0
  9 11  1  0  0  0  0
  9 13  1  0  0  0  0
  9 28  1  0  0  0  0
 10 15  2  0  0  0  0
 10 16  1  0  0  0  0
 12 14  1  0  0  0  0
 12 30  1  0  0  0  0
 13 31  1  0  0  0  0
 13 32  1  0  0  0  0
 13 33  1  0  0  0  0
 14 34  1  0  0  0  0
 15 18  1  0  0  0  0
 15 35  1  0  0  0  0
 16 19  2  0  0  0  0
 16 36  1  0  0  0  0
 17 21  2  0  0  0  0
 17 22  1  0  0  0  0
 18 20  2  0  0  0  0
 18 37  1  0  0  0  0
 19 20  1  0  0  0  0
 19 38  1  0  0  0  0
 20 39  1  0  0  0  0
 21 23  1  0  0  0  0
 21 40  1  0  0  0  0
 22 24  2  0  0  0  0
 22 41  1  0  0  0  0
 23 25  2  0  0  0  0
 23 42  1  0  0  0  0
 24 25  1  0  0  0  0
 24 43  1  0  0  0  0
M  END
> <PUBCHEM_COMPOUND_CID>
17395807

> <PUBCHEM_CONFORMER_RMSD>
1

> <PUBCHEM_CONFORMER_DIVERSEORDER>
1
98
40
111
125
89
134
207
181
186
221
16
132
162
213
212
48
51
228
68
88
119
144
174
80
59
153
5
216
142
62
31
26
223
225
152
209
121
227
107
210
154
18
129
83
176
126
87
137
7
189
29
214
182
199
35
49
67
208
218
22
158
63
131
188
100
77
183
106
52
53
195
160
156
127
60
220
69
46
130
193
140
6
200
115
25
116
36
86
17
192
169
165
166
41
45
164
177
171
43
57
13
12
97
155
230
114
202
30
103
96
224
65
118
215
147
72
219
232
109
217
9
10
37
122
145
71
204
99
38
184
113
11
159
28
73
201
141
66
108
205
133
91
173
198
64
79
179
180
42
78
101
191
190
233
19
178
20
139
211
148
56
138
76
85
112
151
206
104
44
27
50
55
231
58
32
4
194
84
93
8
196
136
14
149
167
128
123
135
33
23
24
117
47
54
161
170
229
120
92
95
81
39
185
74
124
90
102
187
175
75
197
157
82
15
3
61
21
143
70
168
34
150
226
105
110
146
172
94
222
2
203
163

> <PUBCHEM_MMFF94_PARTIAL_CHARGES>
36
1 -0.19
10 -0.14
11 0.57
12 -0.15
14 0.14
15 -0.15
16 -0.15
17 0.08
18 -0.15
19 -0.15
2 -0.36
20 -0.15
21 -0.15
22 -0.15
23 -0.15
24 -0.15
25 0.19
29 0.37
3 -0.57
30 0.15
34 0.15
35 0.15
36 0.15
37 0.15
38 0.15
39 0.15
4 0.31
40 0.15
41 0.15
42 0.15
43 0.15
5 -0.49
6 -0.71
7 0.4
8 -0.09
9 0.34

> <PUBCHEM_EFFECTIVE_ROTOR_COUNT>
7

> <PUBCHEM_PHARMACOPHORE_FEATURES>
7
1 2 acceptor
1 3 acceptor
1 5 donor
1 6 acceptor
5 4 6 8 12 14 rings
6 10 15 16 18 19 20 rings
6 17 21 22 23 24 25 rings

> <PUBCHEM_HEAVY_ATOM_COUNT>
25

> <PUBCHEM_ATOM_DEF_STEREO_COUNT>
0

> <PUBCHEM_ATOM_UDEF_STEREO_COUNT>
1

> <PUBCHEM_BOND_DEF_STEREO_COUNT>
0

> <PUBCHEM_BOND_UDEF_STEREO_COUNT>
0

> <PUBCHEM_ISOTOPIC_ATOM_COUNT>
0

> <PUBCHEM_COMPONENT_COUNT>
1

> <PUBCHEM_CACTVS_TAUTO_COUNT>
4

> <PUBCHEM_CONFORMER_ID>
0109705F00000001

> <PUBCHEM_MMFF94_ENERGY>
62.6492

> <PUBCHEM_FEATURE_SELFOVERLAP>
35.526

> <PUBCHEM_SHAPE_FINGERPRINT>
10006869 2 18270407217274311347
10256941 240 17271478955687863940
10616163 171 18410014338170805572
10670039 82 18342446020729956516
1100329 8 17764310939349744386
11135609 149 16952509520711086126
11221954 11 18263650734767877503
12596602 18 16773240561602688914
12633257 1 18055366991680681106
13402501 40 18409731729343503001
13965767 371 17271729691319190639
14251764 38 18337678619472848162
14363568 33 17621021072115621865
14466204 15 18123482832639641282
14790565 3 17904763637462450081
20398071 114 18195534911216796397
21033648 144 17969503710986544662
21033648 29 18261120629985086768
21049683 118 17415558989840951953
22182937 141 18265891539734329849
22956985 138 16259809089797249395
23536364 44 17969762251000944668
23557571 272 18342727516596024975
23559900 14 18120658191140916974
23845131 108 17768803518845082657
3187 122 18130224865783242781
325973 47 18337112259226723432
469060 322 17916283018790262745
50150288 127 16372389566922983185
5081480 168 17099151403017351662
508706 21 18411416249897844612
5104073 3 18272375299737067322
5309563 4 18122626046613672395
6004065 56 18122627150864087047
6036956 94 18197784306197430357
621550 34 18261940895587853399
7288768 16 18059008527195356281
7399639 24 18335408063643431519
9709674 26 18190461747512417391
9981440 41 18342184400796464787

> <PUBCHEM_SHAPE_MULTIPOLES>
480.53
11.07
4.92
1.22
9.73
2.23
-0.24
6.33
1.26
-3.38
0.58
-0.16
-0.83
2.36

> <PUBCHEM_SHAPE_SELFOVERLAP>
1031.998

> <PUBCHEM_SHAPE_VOLUME>
265.8

> <PUBCHEM_COORDINATE_TYPE>
2
5
10

$$$$

