3860
  -OEChem-06251223443D

 49 48  0     1  0  0  0  0  0999 V2000
   -0.7287    2.4506   -1.1867 S   0  0  0  0  0  0  0  0  0  0  0  0
   -1.9967    0.4019    1.7130 O   0  0  0  0  0  0  0  0  0  0  0  0
   -4.8609   -2.0633   -1.0530 O   0  0  0  0  0  0  0  0  0  0  0  0
    1.6996   -1.6719   -0.4531 O   0  0  0  0  0  0  0  0  0  0  0  0
   -6.5500   -1.4606    0.3170 O   0  0  0  0  0  0  0  0  0  0  0  0
    6.6238    1.7469    0.5636 O   0  0  0  0  0  0  0  0  0  0  0  0
    7.6571   -0.2763    0.5286 O   0  0  0  0  0  0  0  0  0  0  0  0
   -3.1787   -0.2796   -0.1633 N   0  0  0  0  0  0  0  0  0  0  0  0
    0.3940   -0.0456    0.5652 N   0  0  0  0  0  0  0  0  0  0  0  0
    5.9858   -1.2104   -1.4154 N   0  0  0  0  0  0  0  0  0  0  0  0
   -5.0430    1.2664    0.2149 C   0  0  0  0  0  0  0  0  0  0  0  0
   -4.4979   -0.1643    0.4133 C   0  0  1  0  0  0  0  0  0  0  0  0
   -0.7615   -0.2135   -0.2833 C   0  0  1  0  0  0  0  0  0  0  0  0
    4.0246   -0.6451    0.8860 C   0  0  0  0  0  0  0  0  0  0  0  0
    4.2936    0.2437   -0.3356 C   0  0  0  0  0  0  0  0  0  0  0  0
    2.6083   -0.4343    1.4196 C   0  0  0  0  0  0  0  0  0  0  0  0
   -2.0234    0.0176    0.5456 C   0  0  0  0  0  0  0  0  0  0  0  0
   -5.2378    1.6391   -1.2580 C   0  0  0  0  0  0  0  0  0  0  0  0
   -6.3370    1.5067    0.9974 C   0  0  0  0  0  0  0  0  0  0  0  0
    5.7160    0.1326   -0.9040 C   0  0  1  0  0  0  0  0  0  0  0  0
    1.5440   -0.8042    0.4021 C   0  0  0  0  0  0  0  0  0  0  0  0
   -0.6874    0.6621   -1.5366 C   0  0  0  0  0  0  0  0  0  0  0  0
   -5.4163   -1.2664   -0.1071 C   0  0  0  0  0  0  0  0  0  0  0  0
    6.7727    0.4678    0.1296 C   0  0  0  0  0  0  0  0  0  0  0  0
   -4.2972    1.9636    0.6220 H   0  0  0  0  0  0  0  0  0  0  0  0
   -4.3909   -0.3579    1.4888 H   0  0  0  0  0  0  0  0  0  0  0  0
   -0.7860   -1.2629   -0.6061 H   0  0  0  0  0  0  0  0  0  0  0  0
    4.7345   -0.4142    1.6881 H   0  0  0  0  0  0  0  0  0  0  0  0
    4.1665   -1.6995    0.6219 H   0  0  0  0  0  0  0  0  0  0  0  0
   -3.1062   -0.6096   -1.1211 H   0  0  0  0  0  0  0  0  0  0  0  0
    3.5837    0.0140   -1.1393 H   0  0  0  0  0  0  0  0  0  0  0  0
    4.1042    1.2884   -0.0557 H   0  0  0  0  0  0  0  0  0  0  0  0
    2.4878    0.6094    1.7325 H   0  0  0  0  0  0  0  0  0  0  0  0
    2.4498   -1.0631    2.3032 H   0  0  0  0  0  0  0  0  0  0  0  0
   -4.3016    1.5531   -1.8185 H   0  0  0  0  0  0  0  0  0  0  0  0
   -5.5812    2.6752   -1.3504 H   0  0  0  0  0  0  0  0  0  0  0  0
   -5.9826    0.9966   -1.7389 H   0  0  0  0  0  0  0  0  0  0  0  0
   -6.2283    1.1965    2.0417 H   0  0  0  0  0  0  0  0  0  0  0  0
   -6.5894    2.5729    0.9940 H   0  0  0  0  0  0  0  0  0  0  0  0
   -7.1868    0.9723    0.5625 H   0  0  0  0  0  0  0  0  0  0  0  0
    0.3574    0.6615    1.2940 H   0  0  0  0  0  0  0  0  0  0  0  0
    5.8316    0.8379   -1.7357 H   0  0  0  0  0  0  0  0  0  0  0  0
    0.2392    0.4574   -2.0840 H   0  0  0  0  0  0  0  0  0  0  0  0
   -1.5175    0.4456   -2.2159 H   0  0  0  0  0  0  0  0  0  0  0  0
    5.2923   -1.4529   -2.1219 H   0  0  0  0  0  0  0  0  0  0  0  0
    6.8890   -1.2223   -1.8878 H   0  0  0  0  0  0  0  0  0  0  0  0
    0.3811    2.4837   -0.4345 H   0  0  0  0  0  0  0  0  0  0  0  0
   -5.4754   -2.7708   -1.3428 H   0  0  0  0  0  0  0  0  0  0  0  0
    7.3020    1.9878    1.2302 H   0  0  0  0  0  0  0  0  0  0  0  0
  1 22  1  0  0  0  0
  1 47  1  0  0  0  0
  2 17  2  0  0  0  0
  3 23  1  0  0  0  0
  3 48  1  0  0  0  0
  4 21  2  0  0  0  0
  5 23  2  0  0  0  0
  6 24  1  0  0  0  0
  6 49  1  0  0  0  0
  7 24  2  0  0  0  0
  8 12  1  0  0  0  0
  8 17  1  0  0  0  0
  8 30  1  0  0  0  0
  9 13  1  0  0  0  0
  9 21  1  0  0  0  0
  9 41  1  0  0  0  0
 10 20  1  0  0  0  0
 10 45  1  0  0  0  0
 10 46  1  0  0  0  0
 11 12  1  0  0  0  0
 11 18  1  0  0  0  0
 11 19  1  0  0  0  0
 11 25  1  0  0  0  0
 12 23  1  0  0  0  0
 12 26  1  0  0  0  0
 13 17  1  0  0  0  0
 13 22  1  0  0  0  0
 13 27  1  0  0  0  0
 14 15  1  0  0  0  0
 14 16  1  0  0  0  0
 14 28  1  0  0  0  0
 14 29  1  0  0  0  0
 15 20  1  0  0  0  0
 15 31  1  0  0  0  0
 15 32  1  0  0  0  0
 16 21  1  0  0  0  0
 16 33  1  0  0  0  0
 16 34  1  0  0  0  0
 18 35  1  0  0  0  0
 18 36  1  0  0  0  0
 18 37  1  0  0  0  0
 19 38  1  0  0  0  0
 19 39  1  0  0  0  0
 19 40  1  0  0  0  0
 20 24  1  0  0  0  0
 20 42  1  0  0  0  0
 22 43  1  0  0  0  0
 22 44  1  0  0  0  0
M  END
> <PUBCHEM_COMPOUND_CID>
3860

> <PUBCHEM_CONFORMER_RMSD>
1.2

> <PUBCHEM_CONFORMER_DIVERSEORDER>
1
72
124
69
20
106
129
130
97
14
45
104
88
99
138
108
28
127
56
53
80
9
18
66
41
133
132
137
64
73
63
55
119
46
140
12
128
151
92
21
39
83
2
93
79
16
5
154
152
120
125
77
42
57
78
82
17
62
145
23
10
144
101
114
110
86
91
33
74
15
96
143
85
98
25
30
7
134
126
118
13
107
32
61
76
123
148
4
90
29
100
113
68
135
146
116
147
65
142
81
94
131
52
105
60
50
71
49
153
103
27
48
31
115
37
136
8
11
51
75
59
150
24
84
36
95
117
112
121
40
22
38
122
58
102
70
111
35
47
26
139
44
43
141
19
6
89
34
3
109
149
67
87
54

> <PUBCHEM_MMFF94_PARTIAL_CHARGES>
26
1 -0.41
10 -0.99
12 0.36
13 0.36
16 0.06
17 0.57
2 -0.57
20 0.33
21 0.57
22 0.23
23 0.66
24 0.66
3 -0.65
30 0.37
4 -0.57
41 0.37
45 0.36
46 0.36
47 0.18
48 0.5
49 0.5
5 -0.57
6 -0.65
7 -0.57
8 -0.73
9 -0.73

> <PUBCHEM_EFFECTIVE_ROTOR_COUNT>
13

> <PUBCHEM_PHARMACOPHORE_FEATURES>
13
1 10 cation
1 10 donor
1 2 acceptor
1 3 acceptor
1 4 acceptor
1 5 acceptor
1 6 acceptor
1 7 acceptor
1 8 donor
1 9 donor
3 11 18 19 hydrophobe
3 3 5 23 anion
3 6 7 24 anion

> <PUBCHEM_HEAVY_ATOM_COUNT>
24

> <PUBCHEM_ATOM_DEF_STEREO_COUNT>
0

> <PUBCHEM_ATOM_UDEF_STEREO_COUNT>
3

> <PUBCHEM_BOND_DEF_STEREO_COUNT>
0

> <PUBCHEM_BOND_UDEF_STEREO_COUNT>
0

> <PUBCHEM_ISOTOPIC_ATOM_COUNT>
0

> <PUBCHEM_COMPONENT_COUNT>
1

> <PUBCHEM_CACTVS_TAUTO_COUNT>
4

> <PUBCHEM_CONFORMER_ID>
00000F1400000001

> <PUBCHEM_MMFF94_ENERGY>
34.2715

> <PUBCHEM_FEATURE_SELFOVERLAP>
66.087

> <PUBCHEM_SHAPE_FINGERPRINT>
10087517 78 17418097658793916301
10906281 52 17489008461702400017
11315181 36 18410576172307897065
12091667 2 17917711310053796753
12236239 1 18334293167352129826
12516196 113 18272931617860199197
13533116 47 9511196127214351764
13914758 101 13254530776909753830
14123256 10 17917714582312766258
14251764 18 17918270966036463681
14251764 46 18334012792124553739
14933364 13 18187080658941392944
15021287 119 14634877430921263417
15048467 5 18408322215619081385
15183329 4 16128657440207040604
19377110 9 17417821676969399256
19489759 90 10447929477723666927
21150785 3 17749116586370330949
220451 1 18412544344796921267
23081809 10 17988651816962219931
23402539 116 17917999407933465683
23559900 14 17822298972076122929
23622692 88 13840269186843147032
4325135 7 17989490714385440759
5104073 3 15194736755814849248
5486654 2 17489864921627086178
7226269 152 14836405834976514173

> <PUBCHEM_SHAPE_MULTIPOLES>
447.6
20.42
1.85
1.32
16.31
0.71
-0.03
0.37
0.83
-2
-0.5
-0.04
0.04
-0.19

> <PUBCHEM_SHAPE_SELFOVERLAP>
863.491

> <PUBCHEM_SHAPE_VOLUME>
272.6

> <PUBCHEM_COORDINATE_TYPE>
2
5
10

$$$$

