11891
  -OEChem-06261206153D

 15 15  0     0  0  0  0  0  0999 V2000
    1.9836   -2.2360   -0.1482 Br  0  0  0  0  0  0  0  0  0  0  0  0
   -3.5488    1.3091    0.1337 Br  0  0  0  0  0  0  0  0  0  0  0  0
    1.8559    1.8133   -0.9584 O   0  0  0  0  0  0  0  0  0  0  0  0
    2.6019    0.7970    0.9330 O   0  0  0  0  0  0  0  0  0  0  0  0
    0.4644    0.2117    0.0317 C   0  0  0  0  0  0  0  0  0  0  0  0
    0.4096   -1.1789   -0.0644 C   0  0  0  0  0  0  0  0  0  0  0  0
   -0.7154    0.9536    0.0904 C   0  0  0  0  0  0  0  0  0  0  0  0
   -1.9498    0.3051    0.0529 C   0  0  0  0  0  0  0  0  0  0  0  0
   -0.8249   -1.8273   -0.1018 C   0  0  0  0  0  0  0  0  0  0  0  0
   -2.0046   -1.0853   -0.0433 C   0  0  0  0  0  0  0  0  0  0  0  0
    1.7280    0.9378    0.0743 C   0  0  0  0  0  0  0  0  0  0  0  0
   -0.6736    2.0380    0.1699 H   0  0  0  0  0  0  0  0  0  0  0  0
   -0.8877   -2.9100   -0.1766 H   0  0  0  0  0  0  0  0  0  0  0  0
   -2.9583   -1.6061   -0.0734 H   0  0  0  0  0  0  0  0  0  0  0  0
    2.7083    2.2977   -0.9231 H   0  0  0  0  0  0  0  0  0  0  0  0
  1  6  1  0  0  0  0
  2  8  1  0  0  0  0
  3 11  1  0  0  0  0
  3 15  1  0  0  0  0
  4 11  2  0  0  0  0
  5  6  2  0  0  0  0
  5  7  1  0  0  0  0
  5 11  1  0  0  0  0
  6  9  1  0  0  0  0
  7  8  2  0  0  0  0
  7 12  1  0  0  0  0
  8 10  1  0  0  0  0
  9 10  2  0  0  0  0
  9 13  1  0  0  0  0
 10 14  1  0  0  0  0
M  END
> <PUBCHEM_COMPOUND_CID>
11891

> <PUBCHEM_CONFORMER_RMSD>
0.4

> <PUBCHEM_CONFORMER_DIVERSEORDER>
1
2

> <PUBCHEM_MMFF94_PARTIAL_CHARGES>
15
1 -0.11
10 -0.15
11 0.63
12 0.15
13 0.15
14 0.15
15 0.5
2 -0.11
3 -0.65
4 -0.57
5 0.09
6 0.11
7 -0.15
8 0.11
9 -0.15

> <PUBCHEM_EFFECTIVE_ROTOR_COUNT>
1

> <PUBCHEM_PHARMACOPHORE_FEATURES>
6
1 1 hydrophobe
1 2 hydrophobe
1 3 acceptor
1 4 acceptor
3 3 4 11 anion
6 5 6 7 8 9 10 rings

> <PUBCHEM_HEAVY_ATOM_COUNT>
11

> <PUBCHEM_ATOM_DEF_STEREO_COUNT>
0

> <PUBCHEM_ATOM_UDEF_STEREO_COUNT>
0

> <PUBCHEM_BOND_DEF_STEREO_COUNT>
0

> <PUBCHEM_BOND_UDEF_STEREO_COUNT>
0

> <PUBCHEM_ISOTOPIC_ATOM_COUNT>
0

> <PUBCHEM_COMPONENT_COUNT>
1

> <PUBCHEM_CACTVS_TAUTO_COUNT>
1

> <PUBCHEM_CONFORMER_ID>
00002E7300000001

> <PUBCHEM_MMFF94_ENERGY>
29.9992

> <PUBCHEM_FEATURE_SELFOVERLAP>
30.503

> <PUBCHEM_SHAPE_FINGERPRINT>
11680986 33 18410008883451582923
12423570 1 4815553809458922819
13380535 21 18338783564207990267
13380535 76 18410581673501841011
14325111 11 18408886269774632529
14648413 74 18341041999503613291
14897335 6 18335148600325671853
15490181 8 18270679740700224834
161256 15 18196656421756161564
16945 1 18192992608652641719
193761 8 18410291393752821079
20511035 2 18334858337492835631
21040471 1 18408883997240963281
21130352 189 18125723636729685367
21501502 16 18409168809687143175
2334 1 18409446964680462223
23552423 10 18413105043786584950
23559900 14 18114732747739572620
241688 4 17835518597866332218
2748010 2 18410568500837241711
3071541 158 18125715944379974453
5084963 1 17898556593110512370
528862 383 18341337793911753923
53812653 8 17981317889816123476
7364860 26 18187929537937389354

> <PUBCHEM_SHAPE_MULTIPOLES>
226.52
4.4
2.3
0.75
2.95
0.29
-0.01
-0.81
0.29
-1.37
-0.23
-0.2
-0.18
0.01

> <PUBCHEM_SHAPE_SELFOVERLAP>
447.22

> <PUBCHEM_SHAPE_VOLUME>
140.6

> <PUBCHEM_COORDINATE_TYPE>
2
5
10

$$$$

