17395433
  -OEChem-06241222503D

 36 37  0     1  0  0  0  0  0999 V2000
    6.9792    1.0659   -0.7879 Br  0  0  0  0  0  0  0  0  0  0  0  0
   -0.9315   -0.2981   -0.5535 S   0  0  0  0  0  0  0  0  0  0  0  0
   -0.7487    1.1355   -0.4253 O   0  0  0  0  0  0  0  0  0  0  0  0
   -1.3839   -0.8671   -1.8090 O   0  0  0  0  0  0  0  0  0  0  0  0
    0.4979   -1.1036   -0.0437 N   0  0  1  0  0  0  0  0  0  0  0  0
   -2.0824   -0.8037    0.7071 C   0  0  0  0  0  0  0  0  0  0  0  0
    1.2875   -0.4899    1.0530 C   0  0  0  0  0  0  0  0  0  0  0  0
   -3.4042   -0.1710    0.3981 C   0  0  0  0  0  0  0  0  0  0  0  0
    2.6701   -0.1117    0.6062 C   0  0  0  0  0  0  0  0  0  0  0  0
    0.4654   -2.5846    0.0500 C   0  0  0  0  0  0  0  0  0  0  0  0
   -4.3247   -0.8382   -0.4101 C   0  0  0  0  0  0  0  0  0  0  0  0
   -3.7148    1.0855    0.9181 C   0  0  0  0  0  0  0  0  0  0  0  0
    3.7148   -1.0288    0.7206 C   0  0  0  0  0  0  0  0  0  0  0  0
    2.9100    1.1564    0.0771 C   0  0  0  0  0  0  0  0  0  0  0  0
   -5.5557   -0.2490   -0.6981 C   0  0  0  0  0  0  0  0  0  0  0  0
   -4.9459    1.6745    0.6302 C   0  0  0  0  0  0  0  0  0  0  0  0
    4.9995   -0.6776    0.3058 C   0  0  0  0  0  0  0  0  0  0  0  0
    4.1946    1.5077   -0.3375 C   0  0  0  0  0  0  0  0  0  0  0  0
   -5.8664    1.0073   -0.1780 C   0  0  0  0  0  0  0  0  0  0  0  0
    5.2393    0.5906   -0.2232 C   0  0  0  0  0  0  0  0  0  0  0  0
   -2.1649   -1.8941    0.7014 H   0  0  0  0  0  0  0  0  0  0  0  0
   -1.7035   -0.4806    1.6813 H   0  0  0  0  0  0  0  0  0  0  0  0
    1.3462   -1.1713    1.9119 H   0  0  0  0  0  0  0  0  0  0  0  0
    0.7822    0.3980    1.4513 H   0  0  0  0  0  0  0  0  0  0  0  0
   -0.1113   -3.0088   -0.7769 H   0  0  0  0  0  0  0  0  0  0  0  0
    0.0268   -2.9093    0.9977 H   0  0  0  0  0  0  0  0  0  0  0  0
    1.4802   -2.9851   -0.0293 H   0  0  0  0  0  0  0  0  0  0  0  0
   -4.0957   -1.8179   -0.8212 H   0  0  0  0  0  0  0  0  0  0  0  0
   -3.0069    1.6157    1.5497 H   0  0  0  0  0  0  0  0  0  0  0  0
    3.5426   -2.0191    1.1334 H   0  0  0  0  0  0  0  0  0  0  0  0
    2.1049    1.8800   -0.0176 H   0  0  0  0  0  0  0  0  0  0  0  0
   -6.2725   -0.7685   -1.3272 H   0  0  0  0  0  0  0  0  0  0  0  0
   -5.1878    2.6528    1.0351 H   0  0  0  0  0  0  0  0  0  0  0  0
    5.8026   -1.4037    0.4019 H   0  0  0  0  0  0  0  0  0  0  0  0
    4.3645    2.4997   -0.7479 H   0  0  0  0  0  0  0  0  0  0  0  0
   -6.8250    1.4661   -0.4021 H   0  0  0  0  0  0  0  0  0  0  0  0
  1 20  1  0  0  0  0
  2  3  2  0  0  0  0
  2  4  2  0  0  0  0
  2  5  1  0  0  0  0
  2  6  1  0  0  0  0
  5  7  1  0  0  0  0
  5 10  1  0  0  0  0
  6  8  1  0  0  0  0
  6 21  1  0  0  0  0
  6 22  1  0  0  0  0
  7  9  1  0  0  0  0
  7 23  1  0  0  0  0
  7 24  1  0  0  0  0
  8 11  2  0  0  0  0
  8 12  1  0  0  0  0
  9 13  2  0  0  0  0
  9 14  1  0  0  0  0
 10 25  1  0  0  0  0
 10 26  1  0  0  0  0
 10 27  1  0  0  0  0
 11 15  1  0  0  0  0
 11 28  1  0  0  0  0
 12 16  2  0  0  0  0
 12 29  1  0  0  0  0
 13 17  1  0  0  0  0
 13 30  1  0  0  0  0
 14 18  2  0  0  0  0
 14 31  1  0  0  0  0
 15 19  2  0  0  0  0
 15 32  1  0  0  0  0
 16 19  1  0  0  0  0
 16 33  1  0  0  0  0
 17 20  2  0  0  0  0
 17 34  1  0  0  0  0
 18 20  1  0  0  0  0
 18 35  1  0  0  0  0
 19 36  1  0  0  0  0
M  END
> <PUBCHEM_COMPOUND_CID>
17395433

> <PUBCHEM_CONFORMER_RMSD>
0.8

> <PUBCHEM_CONFORMER_DIVERSEORDER>
1
52
42
61
26
13
56
55
18
49
35
46
66
27
59
39
57
14
36
21
40
6
74
45
77
24
19
23
70
75
62
50
73
69
37
16
51
38
79
20
58
12
41
5
67
2
17
63
25
71
28
68
11
9
47
48
76
43
15
78
72
3
29
64
60
8
22
53
44
7
65
4
54
30
31
10
33
32
34

> <PUBCHEM_MMFF94_PARTIAL_CHARGES>
29
1 -0.11
10 0.36
11 -0.15
12 -0.15
13 -0.15
14 -0.15
15 -0.15
16 -0.15
17 -0.15
18 -0.15
19 -0.15
2 1.33
20 0.11
28 0.15
29 0.15
3 -0.65
30 0.15
31 0.15
32 0.15
33 0.15
34 0.15
35 0.15
36 0.15
4 -0.65
5 -0.85
6 0.25
7 0.5
8 -0.14
9 -0.14

> <PUBCHEM_EFFECTIVE_ROTOR_COUNT>
5

> <PUBCHEM_PHARMACOPHORE_FEATURES>
5
1 1 hydrophobe
1 3 acceptor
1 4 acceptor
6 8 11 12 15 16 19 rings
6 9 13 14 17 18 20 rings

> <PUBCHEM_HEAVY_ATOM_COUNT>
20

> <PUBCHEM_ATOM_DEF_STEREO_COUNT>
0

> <PUBCHEM_ATOM_UDEF_STEREO_COUNT>
0

> <PUBCHEM_BOND_DEF_STEREO_COUNT>
0

> <PUBCHEM_BOND_UDEF_STEREO_COUNT>
0

> <PUBCHEM_ISOTOPIC_ATOM_COUNT>
0

> <PUBCHEM_COMPONENT_COUNT>
1

> <PUBCHEM_CACTVS_TAUTO_COUNT>
1

> <PUBCHEM_CONFORMER_ID>
01096EE900000001

> <PUBCHEM_MMFF94_ENERGY>
44.18

> <PUBCHEM_FEATURE_SELFOVERLAP>
25.389

> <PUBCHEM_SHAPE_FINGERPRINT>
10 15 15267061411852717860
106641 1 17274813637452979209
10670039 82 17603578672918497560
10730089 173 18186236233985179432
11045977 3 17489299772164865945
11089746 13 18335703815043324448
12107183 9 17617097349033841547
12236239 1 18335141994254494498
12516196 113 15554445197824964565
12596602 18 17775845727269339593
12788726 201 17968086565047086456
12916748 109 15936412238521189299
13288520 33 8574712395291204987
13533116 47 15912778288170242144
13631057 29 18262805056546662655
13668630 136 5761934060617273660
13785724 45 17763187238767435490
14251752 14 17603583045806595070
14251764 18 18411981356288799849
14341114 176 17489868271479718848
14528608 73 18408888425368017771
14573314 32 16877937265363725725
15048467 5 18202845456702759977
15183329 4 17022894679652198726
17834072 33 18408045095897249867
17834072 8 16660080005945706636
19489759 90 17385442129115207649
19784866 170 18272086127999529003
21033648 29 16773813479959134581
21150785 3 18113621149044703261
22224240 67 15410895128624234440
23035841 295 10807938171659346600
23402539 116 18259705580005570140
23402655 69 18411418385018732658
23559900 14 18114471058690478505
26918003 58 12679463084174014159
3004659 81 18114459059316854398
34797466 226 16950279564320488233
4073 2 17917704682571723602
474 4 18413107273043286883
5104073 3 17988648437471467098
542803 24 18411420617795000179
54446538 1 18334859406865800312
6328613 192 18341324493068405932
7495541 125 11311765168462029974

> <PUBCHEM_SHAPE_MULTIPOLES>
404.66
16.13
1.77
1.04
5.03
0.39
0.15
-7.15
1.97
0.14
-0.04
-0.26
0.07
-1.19

> <PUBCHEM_SHAPE_SELFOVERLAP>
820.145

> <PUBCHEM_SHAPE_VOLUME>
241.2

> <PUBCHEM_COORDINATE_TYPE>
2
5
10

$$$$

