17396231
  -OEChem-06241222553D

 46 48  0     0  0  0  0  0  0999 V2000
   -2.7844   -0.3261    1.7975 O   0  0  0  0  0  0  0  0  0  0  0  0
   -2.2248    1.6912   -2.3020 O   0  0  0  0  0  0  0  0  0  0  0  0
   -0.3114   -1.0752   -0.7429 O   0  0  0  0  0  0  0  0  0  0  0  0
    6.1487    0.2816   -0.0881 O   0  0  0  0  0  0  0  0  0  0  0  0
    5.4496   -1.8952    0.0804 O   0  0  0  0  0  0  0  0  0  0  0  0
   -4.0394    0.6325   -1.2941 N   0  0  0  0  0  0  0  0  0  0  0  0
   -2.1303    0.7721   -0.1531 N   0  0  0  0  0  0  0  0  0  0  0  0
    2.1534    1.2135    0.5936 N   0  0  0  0  0  0  0  0  0  0  0  0
   -4.3502   -0.0300   -0.0512 C   0  0  0  0  0  0  0  0  0  0  0  0
   -5.4788    0.6610    0.7178 C   0  0  0  0  0  0  0  0  0  0  0  0
   -4.7643   -1.4942   -0.2381 C   0  0  0  0  0  0  0  0  0  0  0  0
   -6.2567   -0.4855    1.3499 C   0  0  0  0  0  0  0  0  0  0  0  0
   -6.1941   -1.5725    0.2903 C   0  0  0  0  0  0  0  0  0  0  0  0
   -3.0076    0.1018    0.6720 C   0  0  0  0  0  0  0  0  0  0  0  0
   -2.7269    1.1026   -1.3531 C   0  0  0  0  0  0  0  0  0  0  0  0
   -0.7578    1.0778    0.1988 C   0  0  0  0  0  0  0  0  0  0  0  0
    0.1609   -0.0585   -0.2303 C   0  0  0  0  0  0  0  0  0  0  0  0
    1.6051    0.1018    0.0092 C   0  0  0  0  0  0  0  0  0  0  0  0
    2.6302   -0.7701   -0.2837 C   0  0  0  0  0  0  0  0  0  0  0  0
    3.8375   -0.1612    0.1398 C   0  0  0  0  0  0  0  0  0  0  0  0
    3.5131    1.0640    0.6788 C   0  0  0  0  0  0  0  0  0  0  0  0
    2.4972   -2.0965   -0.9225 C   0  0  0  0  0  0  0  0  0  0  0  0
    4.3563    2.1205    1.2716 C   0  0  0  0  0  0  0  0  0  0  0  0
    5.1713   -0.6842    0.0461 C   0  0  0  0  0  0  0  0  0  0  0  0
    7.5036   -0.1713   -0.1868 C   0  0  0  0  0  0  0  0  0  0  0  0
   -5.1241    1.3671    1.4760 H   0  0  0  0  0  0  0  0  0  0  0  0
   -6.1370    1.2114    0.0336 H   0  0  0  0  0  0  0  0  0  0  0  0
   -4.7220   -1.8239   -1.2820 H   0  0  0  0  0  0  0  0  0  0  0  0
   -4.1242   -2.1685    0.3433 H   0  0  0  0  0  0  0  0  0  0  0  0
   -5.7618   -0.8206    2.2690 H   0  0  0  0  0  0  0  0  0  0  0  0
   -7.2842   -0.2031    1.5965 H   0  0  0  0  0  0  0  0  0  0  0  0
   -6.9032   -1.3525   -0.5168 H   0  0  0  0  0  0  0  0  0  0  0  0
   -6.4333   -2.5613    0.6922 H   0  0  0  0  0  0  0  0  0  0  0  0
   -4.7032    0.7446   -2.0542 H   0  0  0  0  0  0  0  0  0  0  0  0
   -0.6859    1.2043    1.2835 H   0  0  0  0  0  0  0  0  0  0  0  0
   -0.4584    1.9944   -0.3190 H   0  0  0  0  0  0  0  0  0  0  0  0
    1.6399    2.0227    0.9152 H   0  0  0  0  0  0  0  0  0  0  0  0
    2.1042   -2.8268   -0.2080 H   0  0  0  0  0  0  0  0  0  0  0  0
    1.8202   -2.0540   -1.7820 H   0  0  0  0  0  0  0  0  0  0  0  0
    3.4494   -2.4750   -1.3036 H   0  0  0  0  0  0  0  0  0  0  0  0
    5.0709    1.6978    1.9852 H   0  0  0  0  0  0  0  0  0  0  0  0
    3.7554    2.8591    1.8132 H   0  0  0  0  0  0  0  0  0  0  0  0
    4.9127    2.6522    0.4932 H   0  0  0  0  0  0  0  0  0  0  0  0
    7.7860   -0.7145    0.7197 H   0  0  0  0  0  0  0  0  0  0  0  0
    7.6262   -0.8031   -1.0713 H   0  0  0  0  0  0  0  0  0  0  0  0
    8.1486    0.7054   -0.2875 H   0  0  0  0  0  0  0  0  0  0  0  0
  1 14  2  0  0  0  0
  2 15  2  0  0  0  0
  3 17  2  0  0  0  0
  4 24  1  0  0  0  0
  4 25  1  0  0  0  0
  5 24  2  0  0  0  0
  6  9  1  0  0  0  0
  6 15  1  0  0  0  0
  6 34  1  0  0  0  0
  7 14  1  0  0  0  0
  7 15  1  0  0  0  0
  7 16  1  0  0  0  0
  8 18  1  0  0  0  0
  8 21  1  0  0  0  0
  8 37  1  0  0  0  0
  9 10  1  0  0  0  0
  9 11  1  0  0  0  0
  9 14  1  0  0  0  0
 10 12  1  0  0  0  0
 10 26  1  0  0  0  0
 10 27  1  0  0  0  0
 11 13  1  0  0  0  0
 11 28  1  0  0  0  0
 11 29  1  0  0  0  0
 12 13  1  0  0  0  0
 12 30  1  0  0  0  0
 12 31  1  0  0  0  0
 13 32  1  0  0  0  0
 13 33  1  0  0  0  0
 16 17  1  0  0  0  0
 16 35  1  0  0  0  0
 16 36  1  0  0  0  0
 17 18  1  0  0  0  0
 18 19  2  0  0  0  0
 19 20  1  0  0  0  0
 19 22  1  0  0  0  0
 20 21  2  0  0  0  0
 20 24  1  0  0  0  0
 21 23  1  0  0  0  0
 22 38  1  0  0  0  0
 22 39  1  0  0  0  0
 22 40  1  0  0  0  0
 23 41  1  0  0  0  0
 23 42  1  0  0  0  0
 23 43  1  0  0  0  0
 25 44  1  0  0  0  0
 25 45  1  0  0  0  0
 25 46  1  0  0  0  0
M  END
> <PUBCHEM_COMPOUND_CID>
17396231

> <PUBCHEM_CONFORMER_RMSD>
0.8

> <PUBCHEM_CONFORMER_DIVERSEORDER>
2
53
124
165
123
99
114
156
143
40
60
29
91
115
39
174
92
6
7
171
36
37
135
22
10
70
86
90
112
178
147
15
31
33
140
100
46
51
125
23
30
101
152
45
55
150
69
62
78
34
61
104
18
142
50
21
173
117
109
63
163
89
77
13
187
59
132
1
111
131
97
128
151
170
65
164
107
76
184
106
116
73
14
75
28
167
81
127
11
166
137
103
96
17
186
168
41
139
26
138
161
158
160
129
58
134
154
9
185
108
38
74
19
87
3
57
136
12
49
95
4
172
56
120
130
98
157
118
121
122
68
79
153
146
159
42
149
183
44
126
82
64
148
48
145
67
88
20
72
52
25
71
169
47
110
93
80
133
162
94
113
24
182
102
54
35
155
105
32
16
181
141
119
43
177
84
85
180
5
144
179
66
8
83
175
27
176

> <PUBCHEM_MMFF94_PARTIAL_CHARGES>
23
1 -0.57
14 0.57
15 0.69
16 0.36
17 0.59
18 -0.24
19 -0.18
2 -0.57
20 -0.09
21 -0.33
22 0.18
23 0.18
24 0.81
25 0.28
3 -0.57
34 0.37
37 0.27
4 -0.43
5 -0.57
6 -0.73
7 -0.42
8 0.03
9 0.36

> <PUBCHEM_EFFECTIVE_ROTOR_COUNT>
6.2

> <PUBCHEM_PHARMACOPHORE_FEATURES>
10
1 1 acceptor
1 2 acceptor
1 3 acceptor
1 5 acceptor
1 6 donor
1 8 cation
1 8 donor
5 6 7 9 14 15 rings
5 8 18 19 20 21 rings
5 9 10 11 12 13 rings

> <PUBCHEM_HEAVY_ATOM_COUNT>
25

> <PUBCHEM_ATOM_DEF_STEREO_COUNT>
0

> <PUBCHEM_ATOM_UDEF_STEREO_COUNT>
0

> <PUBCHEM_BOND_DEF_STEREO_COUNT>
0

> <PUBCHEM_BOND_UDEF_STEREO_COUNT>
0

> <PUBCHEM_ISOTOPIC_ATOM_COUNT>
0

> <PUBCHEM_COMPONENT_COUNT>
1

> <PUBCHEM_CACTVS_TAUTO_COUNT>
36

> <PUBCHEM_CONFORMER_ID>
0109720700000002

> <PUBCHEM_MMFF94_ENERGY>
45.483

> <PUBCHEM_FEATURE_SELFOVERLAP>
50.757

> <PUBCHEM_SHAPE_FINGERPRINT>
10 15 18201164248607629048
10366900 7 17203892954774353337
11089746 13 9727631691673133375
11315181 36 18131630089041284901
11524674 6 17530683195570933423
12107183 9 17174595570183775563
12166972 35 18409164385818425328
12236239 1 16588027909334224240
12403259 415 18412273834724114796
12516196 113 17918273143089212036
12596602 18 17241043211236563419
12616971 3 17095250202380976348
12730499 353 18409167706323477850
13073987 5 18262801886601614504
13288520 33 17632294571589192349
13402501 40 18412542102417882083
13533116 47 16701752617197718304
13685833 64 18335419080391833250
13782708 43 18201161039433699858
14341114 176 18335419049720777537
14341114 328 17095517366964201379
14350574 20 18410573985483935916
14849402 71 17677055625526865208
15475509 35 17774176703299952314
15537594 2 16805325517407285830
15880784 105 18335419037299885179
15961568 22 17203044072291037924
17093844 174 6194551199868829983
17844677 252 18334852823045153377
1813 80 17846208943998095293
18222031 100 16559034874098984028
18681886 176 16128651912510348684
19489759 90 17131836481959837397
200 152 18113339725507288897
21033648 29 18340786900132505520
21150785 3 16200148777293381402
21267235 1 18186514424139687296
21521721 280 17821733798094565594
21623969 137 18260543433219365158
2297311 6 17704069612086377133
23402539 116 17203331117987166085
23522609 53 18195214846006793520
23557571 272 17989204888575366845
23559900 14 16629956629649755773
3178227 256 18187364333817175874
34797466 226 17489579052972476860
350125 39 18333449833491429480
3545911 37 18409167701780460734
4073 2 18269271275217005162
4093350 32 16008746876216508456
4325135 7 18272087179960620287
465052 167 18334576871897252854
5104073 3 18189059849081425544
5385378 56 5255864034819580357
542803 24 16732703848086992825
7495541 125 18411983559654462900

> <PUBCHEM_SHAPE_MULTIPOLES>
470.2
17.56
1.74
1.28
6.21
0.22
0.38
3.57
-3.55
1.05
0.06
-1.56
-0.45
1.28

> <PUBCHEM_SHAPE_SELFOVERLAP>
1011.463

> <PUBCHEM_SHAPE_VOLUME>
263.3

> <PUBCHEM_COORDINATE_TYPE>
2
5
10

$$$$

