47205166
  -OEChem-06241222583D

 44 45  0     1  0  0  0  0  0999 V2000
   -5.1967   -1.4655   -2.0026 Cl  0  0  0  0  0  0  0  0  0  0  0  0
   -1.4385    1.5928    1.9229 O   0  0  0  0  0  0  0  0  0  0  0  0
    3.1327    1.7328   -0.6467 N   0  0  0  0  0  0  0  0  0  0  0  0
   -0.4556    1.0514   -0.1073 N   0  0  0  0  0  0  0  0  0  0  0  0
   -3.9039    0.4011    1.1394 N   0  0  0  0  0  0  0  0  0  0  0  0
    2.3609   -0.4273    0.1666 C   0  0  0  0  0  0  0  0  0  0  0  0
    1.9614    0.8597   -0.5526 C   0  0  1  0  0  0  0  0  0  0  0  0
    3.5578   -1.0884   -0.5302 C   0  0  0  0  0  0  0  0  0  0  0  0
    1.1723   -1.3948    0.2464 C   0  0  0  0  0  0  0  0  0  0  0  0
    1.5612   -2.7116    0.9147 C   0  0  0  0  0  0  0  0  0  0  0  0
    3.9427   -2.4058    0.1393 C   0  0  0  0  0  0  0  0  0  0  0  0
    2.7566   -3.3614    0.2247 C   0  0  0  0  0  0  0  0  0  0  0  0
    0.8412    1.6051    0.1772 C   0  0  0  0  0  0  0  0  0  0  0  0
    2.9701    2.6878   -1.7416 C   0  0  0  0  0  0  0  0  0  0  0  0
    3.3479    2.4347    0.6176 C   0  0  0  0  0  0  0  0  0  0  0  0
   -1.5043    1.0918    0.8034 C   0  0  0  0  0  0  0  0  0  0  0  0
   -2.7726    0.4525    0.3678 C   0  0  0  0  0  0  0  0  0  0  0  0
   -3.0468   -0.1780   -0.8258 C   0  0  0  0  0  0  0  0  0  0  0  0
   -4.8961   -0.2527    0.4565 C   0  0  0  0  0  0  0  0  0  0  0  0
   -4.3902   -0.6242   -0.7696 C   0  0  0  0  0  0  0  0  0  0  0  0
    2.6580   -0.2109    1.2014 H   0  0  0  0  0  0  0  0  0  0  0  0
    1.6303    0.5853   -1.5646 H   0  0  0  0  0  0  0  0  0  0  0  0
    3.3195   -1.2782   -1.5848 H   0  0  0  0  0  0  0  0  0  0  0  0
    4.4388   -0.4371   -0.5136 H   0  0  0  0  0  0  0  0  0  0  0  0
    0.3672   -0.9851    0.8589 H   0  0  0  0  0  0  0  0  0  0  0  0
    0.7703   -1.5966   -0.7540 H   0  0  0  0  0  0  0  0  0  0  0  0
    4.7569   -2.8796   -0.4207 H   0  0  0  0  0  0  0  0  0  0  0  0
    4.3234   -2.2051    1.1483 H   0  0  0  0  0  0  0  0  0  0  0  0
    1.8044   -2.5294    1.9690 H   0  0  0  0  0  0  0  0  0  0  0  0
    0.7082   -3.3995    0.8988 H   0  0  0  0  0  0  0  0  0  0  0  0
    2.4677   -3.6754   -0.7859 H   0  0  0  0  0  0  0  0  0  0  0  0
    3.0500   -4.2661    0.7689 H   0  0  0  0  0  0  0  0  0  0  0  0
    0.7437    2.6470   -0.1441 H   0  0  0  0  0  0  0  0  0  0  0  0
    0.9847    1.6066    1.2646 H   0  0  0  0  0  0  0  0  0  0  0  0
    2.1299    3.3770   -1.6109 H   0  0  0  0  0  0  0  0  0  0  0  0
    3.8791    3.2915   -1.8472 H   0  0  0  0  0  0  0  0  0  0  0  0
    2.8408    2.1647   -2.6959 H   0  0  0  0  0  0  0  0  0  0  0  0
    4.3298    2.9237    0.5765 H   0  0  0  0  0  0  0  0  0  0  0  0
    2.6279    3.2328    0.8303 H   0  0  0  0  0  0  0  0  0  0  0  0
    3.4055    1.7640    1.4803 H   0  0  0  0  0  0  0  0  0  0  0  0
   -0.6112    0.6856   -1.0406 H   0  0  0  0  0  0  0  0  0  0  0  0
   -3.9946    0.7855    2.0699 H   0  0  0  0  0  0  0  0  0  0  0  0
   -2.3669   -0.3141   -1.6558 H   0  0  0  0  0  0  0  0  0  0  0  0
   -5.8693   -0.3940    0.9060 H   0  0  0  0  0  0  0  0  0  0  0  0
  1 20  1  0  0  0  0
  2 16  2  0  0  0  0
  3  7  1  0  0  0  0
  3 14  1  0  0  0  0
  3 15  1  0  0  0  0
  4 13  1  0  0  0  0
  4 16  1  0  0  0  0
  4 41  1  0  0  0  0
  5 17  1  0  0  0  0
  5 19  1  0  0  0  0
  5 42  1  0  0  0  0
  6  7  1  0  0  0  0
  6  8  1  0  0  0  0
  6  9  1  0  0  0  0
  6 21  1  0  0  0  0
  7 13  1  0  0  0  0
  7 22  1  0  0  0  0
  8 11  1  0  0  0  0
  8 23  1  0  0  0  0
  8 24  1  0  0  0  0
  9 10  1  0  0  0  0
  9 25  1  0  0  0  0
  9 26  1  0  0  0  0
 10 12  1  0  0  0  0
 10 29  1  0  0  0  0
 10 30  1  0  0  0  0
 11 12  1  0  0  0  0
 11 27  1  0  0  0  0
 11 28  1  0  0  0  0
 12 31  1  0  0  0  0
 12 32  1  0  0  0  0
 13 33  1  0  0  0  0
 13 34  1  0  0  0  0
 14 35  1  0  0  0  0
 14 36  1  0  0  0  0
 14 37  1  0  0  0  0
 15 38  1  0  0  0  0
 15 39  1  0  0  0  0
 15 40  1  0  0  0  0
 16 17  1  0  0  0  0
 17 18  2  0  0  0  0
 18 20  1  0  0  0  0
 18 43  1  0  0  0  0
 19 20  2  0  0  0  0
 19 44  1  0  0  0  0
M  END
> <PUBCHEM_COMPOUND_CID>
47205166

> <PUBCHEM_CONFORMER_RMSD>
0.8

> <PUBCHEM_CONFORMER_DIVERSEORDER>
1
41
59
17
38
79
62
7
45
83
81
77
75
55
86
25
84
80
32
10
37
49
18
26
82
65
48
51
74
85
47
60
58
14
43
54
31
29
22
39
44
9
30
28
76
50
67
46
15
42
71
40
34
27
20
61
35
16
68
66
52
78
23
36
12
21
53
63
33
57
24
69
13
64
3
11
56
73
8
72
4
19
70
2
5
6

> <PUBCHEM_MMFF94_PARTIAL_CHARGES>
18
1 -0.12
13 0.3
14 0.27
15 0.27
16 0.71
17 -0.24
18 -0.15
19 -0.3
2 -0.57
20 0.12
3 -0.81
4 -0.73
41 0.37
42 0.27
43 0.15
44 0.15
5 0.03
7 0.27

> <PUBCHEM_EFFECTIVE_ROTOR_COUNT>
7.2

> <PUBCHEM_PHARMACOPHORE_FEATURES>
7
1 2 acceptor
1 3 cation
1 4 donor
1 5 cation
1 5 donor
5 5 17 18 19 20 rings
6 6 8 9 10 11 12 rings

> <PUBCHEM_HEAVY_ATOM_COUNT>
20

> <PUBCHEM_ATOM_DEF_STEREO_COUNT>
0

> <PUBCHEM_ATOM_UDEF_STEREO_COUNT>
1

> <PUBCHEM_BOND_DEF_STEREO_COUNT>
0

> <PUBCHEM_BOND_UDEF_STEREO_COUNT>
0

> <PUBCHEM_ISOTOPIC_ATOM_COUNT>
0

> <PUBCHEM_COMPONENT_COUNT>
1

> <PUBCHEM_CACTVS_TAUTO_COUNT>
7

> <PUBCHEM_CONFORMER_ID>
02D04B2E00000001

> <PUBCHEM_MMFF94_ENERGY>
31.1273

> <PUBCHEM_FEATURE_SELFOVERLAP>
35.52

> <PUBCHEM_SHAPE_FINGERPRINT>
10062212 137 18187084001185604347
10090160 65 18340489941545270860
11069576 57 18262536839384902911
11118852 30 17894633694426264983
11578080 2 18043555964561182169
11806522 49 18337672022608842378
12410352 35 18187369860981240911
12553582 1 18054776554005403618
12616971 3 18261387871566856555
12788726 201 17677313005594230545
13009979 54 17897437522339132730
13083527 12 18269293377244901448
13533116 47 18408886218456564571
13911987 19 17912912899065540109
14576447 43 18408605885387559118
14844126 61 16616462684662647130
15099037 8 18263360450829203601
15342816 4 17822010852933178789
15375462 189 18187080646604980881
15537594 2 18114738214900299567
15842332 3 18116130324726557529
17134984 74 18048337556632211735
17138139 8 17755035098512280615
17818456 19 17899407877325761777
18186145 218 16917064486487424513
20281475 54 18187651293213792313
20291156 8 18263084477710912627
20645477 70 18131348596504656729
21054139 6 18117567214582677164
21634736 98 18409445907997422070
2255824 54 18341320154924011956
22646028 28 18260267477570736503
23419403 2 14258028651286077192
235170 7 17704080556000586335
23559900 14 18273211984756316800
23596394 208 17775289399511896895
23598288 3 17749959993309116389
23598291 2 18262223521319893429
238 59 18201424883680053634
3004659 81 18335708264650451399
3060560 45 18059000676100959452
312423 11 18261939838856372465
33824 294 18341612594836223736
602551 16 16081381729920433207
603831 33 18260260833230196177
7471813 234 18334861674893005514
7615 1 18188761868150224801
9709674 26 18273491290985429171

> <PUBCHEM_SHAPE_MULTIPOLES>
392.65
10.16
3.4
1.41
11.79
1.21
-0.26
2.92
-2.86
-5.51
-0.06
1.14
-0.41
-2.07

> <PUBCHEM_SHAPE_SELFOVERLAP>
794.74

> <PUBCHEM_SHAPE_VOLUME>
231.8

> <PUBCHEM_COORDINATE_TYPE>
2
5
10

$$$$

