12844
  -OEChem-06261207263D

 36 36  0     1  0  0  0  0  0999 V2000
    2.0642   -0.6504    0.0460 O   0  0  0  0  0  0  0  0  0  0  0  0
    3.4337   -2.4384    0.0607 O   0  0  0  0  0  0  0  0  0  0  0  0
    1.8457    0.7276   -0.3324 C   0  0  1  0  0  0  0  0  0  0  0  0
    0.4931    1.1470    0.2271 C   0  0  0  0  0  0  0  0  0  0  0  0
    2.9534    1.6481    0.1546 C   0  0  0  0  0  0  0  0  0  0  0  0
   -0.6299    0.2480   -0.2898 C   0  0  0  0  0  0  0  0  0  0  0  0
   -1.9829    0.6514    0.3010 C   0  0  0  0  0  0  0  0  0  0  0  0
    4.2788    1.0929   -0.3245 C   0  0  0  0  0  0  0  0  0  0  0  0
   -3.1104   -0.2259   -0.2477 C   0  0  0  0  0  0  0  0  0  0  0  0
    4.4760   -0.2982    0.2405 C   0  0  0  0  0  0  0  0  0  0  0  0
   -4.4984    0.1802    0.2559 C   0  0  0  0  0  0  0  0  0  0  0  0
    3.2940   -1.2173    0.0665 C   0  0  0  0  0  0  0  0  0  0  0  0
   -5.6316   -0.6491   -0.3494 C   0  0  0  0  0  0  0  0  0  0  0  0
   -6.9857   -0.2159    0.1914 C   0  0  0  0  0  0  0  0  0  0  0  0
    1.8015    0.7502   -1.4288 H   0  0  0  0  0  0  0  0  0  0  0  0
    0.5132    1.0840    1.3226 H   0  0  0  0  0  0  0  0  0  0  0  0
    0.2846    2.1903   -0.0389 H   0  0  0  0  0  0  0  0  0  0  0  0
    2.9570    1.7003    1.2504 H   0  0  0  0  0  0  0  0  0  0  0  0
    2.8056    2.6647   -0.2263 H   0  0  0  0  0  0  0  0  0  0  0  0
   -0.6728    0.3103   -1.3840 H   0  0  0  0  0  0  0  0  0  0  0  0
   -0.4322   -0.7995   -0.0336 H   0  0  0  0  0  0  0  0  0  0  0  0
   -1.9522    0.5680    1.3940 H   0  0  0  0  0  0  0  0  0  0  0  0
   -2.1887    1.7018    0.0617 H   0  0  0  0  0  0  0  0  0  0  0  0
    5.1006    1.7451   -0.0092 H   0  0  0  0  0  0  0  0  0  0  0  0
    4.2944    1.0579   -1.4208 H   0  0  0  0  0  0  0  0  0  0  0  0
   -2.9216   -1.2724    0.0218 H   0  0  0  0  0  0  0  0  0  0  0  0
   -3.1034   -0.1755   -1.3438 H   0  0  0  0  0  0  0  0  0  0  0  0
    4.6834   -0.2397    1.3153 H   0  0  0  0  0  0  0  0  0  0  0  0
    5.3433   -0.7584   -0.2459 H   0  0  0  0  0  0  0  0  0  0  0  0
   -4.6670    1.2396    0.0252 H   0  0  0  0  0  0  0  0  0  0  0  0
   -4.5222    0.0874    1.3489 H   0  0  0  0  0  0  0  0  0  0  0  0
   -5.4751   -1.7104   -0.1244 H   0  0  0  0  0  0  0  0  0  0  0  0
   -5.6270   -0.5438   -1.4404 H   0  0  0  0  0  0  0  0  0  0  0  0
   -7.0321   -0.3394    1.2781 H   0  0  0  0  0  0  0  0  0  0  0  0
   -7.1846    0.8344   -0.0443 H   0  0  0  0  0  0  0  0  0  0  0  0
   -7.7821   -0.8207   -0.2534 H   0  0  0  0  0  0  0  0  0  0  0  0
  1  3  1  0  0  0  0
  1 12  1  0  0  0  0
  2 12  2  0  0  0  0
  3  4  1  0  0  0  0
  3  5  1  0  0  0  0
  3 15  1  0  0  0  0
  4  6  1  0  0  0  0
  4 16  1  0  0  0  0
  4 17  1  0  0  0  0
  5  8  1  0  0  0  0
  5 18  1  0  0  0  0
  5 19  1  0  0  0  0
  6  7  1  0  0  0  0
  6 20  1  0  0  0  0
  6 21  1  0  0  0  0
  7  9  1  0  0  0  0
  7 22  1  0  0  0  0
  7 23  1  0  0  0  0
  8 10  1  0  0  0  0
  8 24  1  0  0  0  0
  8 25  1  0  0  0  0
  9 11  1  0  0  0  0
  9 26  1  0  0  0  0
  9 27  1  0  0  0  0
 10 12  1  0  0  0  0
 10 28  1  0  0  0  0
 10 29  1  0  0  0  0
 11 13  1  0  0  0  0
 11 30  1  0  0  0  0
 11 31  1  0  0  0  0
 13 14  1  0  0  0  0
 13 32  1  0  0  0  0
 13 33  1  0  0  0  0
 14 34  1  0  0  0  0
 14 35  1  0  0  0  0
 14 36  1  0  0  0  0
M  END
> <PUBCHEM_COMPOUND_CID>
12844

> <PUBCHEM_CONFORMER_RMSD>
0.8

> <PUBCHEM_CONFORMER_DIVERSEORDER>
1
119
70
64
15
120
84
111
63
113
18
3
130
122
39
13
133
74
104
14
117
132
93
26
123
40
106
49
68
2
114
5
105
128
103
60
8
57
36
125
28
81
44
61
16
115
48
95
107
58
32
87
56
62
41
72
43
7
112
24
17
75
121
6
73
131
50
34
47
78
31
102
19
35
118
12
94
129
10
76
96
110
52
91
116
53
97
51
9
101
25
27
59
127
22
46
42
29
108
30
77
86
37
66
109
55
45
92
65
80
124
4
98
38
90
11
33
20
88
67
126
85
79
82
100
23
54
89
69
21
83
71
99

> <PUBCHEM_MMFF94_PARTIAL_CHARGES>
5
1 -0.43
10 0.06
12 0.66
2 -0.57
3 0.28

> <PUBCHEM_EFFECTIVE_ROTOR_COUNT>
7

> <PUBCHEM_PHARMACOPHORE_FEATURES>
5
1 14 hydrophobe
1 2 acceptor
3 4 6 7 hydrophobe
3 9 11 13 hydrophobe
6 1 3 5 8 10 12 rings

> <PUBCHEM_HEAVY_ATOM_COUNT>
14

> <PUBCHEM_ATOM_DEF_STEREO_COUNT>
0

> <PUBCHEM_ATOM_UDEF_STEREO_COUNT>
1

> <PUBCHEM_BOND_DEF_STEREO_COUNT>
0

> <PUBCHEM_BOND_UDEF_STEREO_COUNT>
0

> <PUBCHEM_ISOTOPIC_ATOM_COUNT>
0

> <PUBCHEM_COMPONENT_COUNT>
1

> <PUBCHEM_CACTVS_TAUTO_COUNT>
1

> <PUBCHEM_CONFORMER_ID>
0000322C00000001

> <PUBCHEM_MMFF94_ENERGY>
9.1996

> <PUBCHEM_FEATURE_SELFOVERLAP>
25.384

> <PUBCHEM_SHAPE_FINGERPRINT>
10912923 1 17894625942647994745
11287383 113 17632574912288517337
11858739 19 18409451418793416655
12107183 9 17758107490582324793
13167823 11 18334014982452464183
13533116 47 18334575758915108915
13836976 161 18343014463925125252
14123238 8 18187081741811215021
1420 363 17418371386007846361
14251717 144 18412263952178147690
14573314 32 17917717928682971645
15242433 33 18408603634940428759
15477762 27 18413107290644960588
17834072 33 18335422344366576477
19427546 62 18198903600570333444
200 152 18334014995384851753
20279233 1 17418369194825569176
20645477 70 18341050799854750862
21267235 1 18335697282582540710
220451 1 18261387820164275743
22224240 67 18337400340495209544
22485316 2 18409731738144291181
23402539 116 17894634743299968621
23532345 1 18341609257430772560
23536379 177 18410292523967127329
23557571 272 17346606287047071869
2871803 45 18060421347532853914
33824 294 18342460348477026786
4214541 1 18410575119661568973
42630746 31 18410293601671446626
42788 4 18411136923011430237
465052 167 18259699003972952815
522135 26 18411136931015776412
5374978 207 17168146736606994001
6025842 7 18341327817129895892

> <PUBCHEM_SHAPE_MULTIPOLES>
276.37
14.58
1.56
0.66
23.48
0.6
-0.01
2.73
0.22
-2.47
0.05
0.07
-0.04
-0.3

> <PUBCHEM_SHAPE_SELFOVERLAP>
526.733

> <PUBCHEM_SHAPE_VOLUME>
170

> <PUBCHEM_COORDINATE_TYPE>
2
5
10

$$$$

