17395912
  -OEChem-06241222532D

 51 55  0     0  0  0  0  0  0999 V2000
    8.0055   -0.4760    0.0000 O   0  0  0  0  0  0  0  0  0  0  0  0
    4.1881   -4.0638    0.0000 N   0  0  0  0  0  0  0  0  0  0  0  0
    5.1408   -5.3638    0.0000 N   0  0  0  0  0  0  0  0  0  0  0  0
    5.7204   -4.5562    0.0000 N   0  0  0  0  0  0  0  0  0  0  0  0
    6.3565    0.0538    0.0000 N   0  0  0  0  0  0  0  0  0  0  0  0
    8.5576    4.0732    0.0000 N   0  0  0  0  0  0  0  0  0  0  0  0
    9.5077    4.3853    0.0000 N   0  0  0  0  0  0  0  0  0  0  0  0
    8.5524    5.6912    0.0000 N   0  0  0  0  0  0  0  0  0  0  0  0
    2.4294   -3.6716    0.0000 C   0  0  0  0  0  0  0  0  0  0  0  0
    2.0000   -4.5748    0.0000 C   0  0  0  0  0  0  0  0  0  0  0  0
    2.4384   -5.4735    0.0000 C   0  0  0  0  0  0  0  0  0  0  0  0
    3.4032   -3.4442    0.0000 C   0  0  0  0  0  0  0  0  0  0  0  0
    3.4144   -5.6912    0.0000 C   0  0  0  0  0  0  0  0  0  0  0  0
    4.1931   -5.0638    0.0000 C   0  0  0  0  0  0  0  0  0  0  0  0
    5.1328   -3.7544    0.0000 C   0  0  0  0  0  0  0  0  0  0  0  0
    5.4387   -2.8023    0.0000 C   0  0  0  0  0  0  0  0  0  0  0  0
    6.4162   -2.5912    0.0000 C   0  0  0  0  0  0  0  0  0  0  0  0
    4.7672   -2.0614    0.0000 C   0  0  0  0  0  0  0  0  0  0  0  0
    6.7221   -1.6392    0.0000 C   0  0  0  0  0  0  0  0  0  0  0  0
    5.0731   -1.1093    0.0000 C   0  0  0  0  0  0  0  0  0  0  0  0
    6.0506   -0.8982    0.0000 C   0  0  0  0  0  0  0  0  0  0  0  0
    7.3340    0.2649    0.0000 C   0  0  0  0  0  0  0  0  0  0  0  0
    7.6399    1.2170    0.0000 C   0  0  0  0  0  0  0  0  0  0  0  0
    8.2517    3.1211    0.0000 C   0  0  0  0  0  0  0  0  0  0  0  0
    8.6173    1.4281    0.0000 C   0  0  0  0  0  0  0  0  0  0  0  0
    6.9683    1.9580    0.0000 C   0  0  0  0  0  0  0  0  0  0  0  0
    8.9232    2.3802    0.0000 C   0  0  0  0  0  0  0  0  0  0  0  0
    7.2742    2.9100    0.0000 C   0  0  0  0  0  0  0  0  0  0  0  0
    7.9672    4.8803    0.0000 C   0  0  0  0  0  0  0  0  0  0  0  0
    9.5044    5.3853    0.0000 C   0  0  0  0  0  0  0  0  0  0  0  0
    2.4263   -3.0516    0.0000 H   0  0  0  0  0  0  0  0  0  0  0  0
    1.8242   -3.5367    0.0000 H   0  0  0  0  0  0  0  0  0  0  0  0
    1.5133   -4.1906    0.0000 H   0  0  0  0  0  0  0  0  0  0  0  0
    1.5172   -4.9637    0.0000 H   0  0  0  0  0  0  0  0  0  0  0  0
    3.8860   -3.0553    0.0000 H   0  0  0  0  0  0  0  0  0  0  0  0
    3.1314   -2.8870    0.0000 H   0  0  0  0  0  0  0  0  0  0  0  0
    1.8346   -5.6145    0.0000 H   0  0  0  0  0  0  0  0  0  0  0  0
    2.4415   -6.0935    0.0000 H   0  0  0  0  0  0  0  0  0  0  0  0
    3.1482   -6.2511    0.0000 H   0  0  0  0  0  0  0  0  0  0  0  0
    3.9010   -6.0753    0.0000 H   0  0  0  0  0  0  0  0  0  0  0  0
    6.8326   -3.0506    0.0000 H   0  0  0  0  0  0  0  0  0  0  0  0
    4.1612   -2.1922    0.0000 H   0  0  0  0  0  0  0  0  0  0  0  0
    7.3281   -1.5083    0.0000 H   0  0  0  0  0  0  0  0  0  0  0  0
    4.6567   -0.6499    0.0000 H   0  0  0  0  0  0  0  0  0  0  0  0
    5.9401    0.5132    0.0000 H   0  0  0  0  0  0  0  0  0  0  0  0
    9.0337    0.9687    0.0000 H   0  0  0  0  0  0  0  0  0  0  0  0
    6.3623    1.8271    0.0000 H   0  0  0  0  0  0  0  0  0  0  0  0
    9.5293    2.5110    0.0000 H   0  0  0  0  0  0  0  0  0  0  0  0
    6.8579    3.3694    0.0000 H   0  0  0  0  0  0  0  0  0  0  0  0
    7.3472    4.8783    0.0000 H   0  0  0  0  0  0  0  0  0  0  0  0
   10.0048    5.7513    0.0000 H   0  0  0  0  0  0  0  0  0  0  0  0
  1 22  2  0  0  0  0
  2 12  1  0  0  0  0
  2 14  1  0  0  0  0
  2 15  1  0  0  0  0
  3  4  1  0  0  0  0
  3 14  2  0  0  0  0
  4 15  2  0  0  0  0
  5 21  1  0  0  0  0
  5 22  1  0  0  0  0
  5 45  1  0  0  0  0
  6  7  1  0  0  0  0
  6 24  1  0  0  0  0
  6 29  1  0  0  0  0
  7 30  2  0  0  0  0
  8 29  2  0  0  0  0
  8 30  1  0  0  0  0
  9 10  1  0  0  0  0
  9 12  1  0  0  0  0
  9 31  1  0  0  0  0
  9 32  1  0  0  0  0
 10 11  1  0  0  0  0
 10 33  1  0  0  0  0
 10 34  1  0  0  0  0
 11 13  1  0  0  0  0
 11 37  1  0  0  0  0
 11 38  1  0  0  0  0
 12 35  1  0  0  0  0
 12 36  1  0  0  0  0
 13 14  1  0  0  0  0
 13 39  1  0  0  0  0
 13 40  1  0  0  0  0
 15 16  1  0  0  0  0
 16 17  2  0  0  0  0
 16 18  1  0  0  0  0
 17 19  1  0  0  0  0
 17 41  1  0  0  0  0
 18 20  2  0  0  0  0
 18 42  1  0  0  0  0
 19 21  2  0  0  0  0
 19 43  1  0  0  0  0
 20 21  1  0  0  0  0
 20 44  1  0  0  0  0
 22 23  1  0  0  0  0
 23 25  2  0  0  0  0
 23 26  1  0  0  0  0
 24 27  2  0  0  0  0
 24 28  1  0  0  0  0
 25 27  1  0  0  0  0
 25 46  1  0  0  0  0
 26 28  2  0  0  0  0
 26 47  1  0  0  0  0
 27 48  1  0  0  0  0
 28 49  1  0  0  0  0
 29 50  1  0  0  0  0
 30 51  1  0  0  0  0
M  END
> <PUBCHEM_COMPOUND_CID>
17395912

> <PUBCHEM_COMPOUND_CANONICALIZED>
1

> <PUBCHEM_CACTVS_COMPLEXITY>
574

> <PUBCHEM_CACTVS_HBOND_ACCEPTOR>
5

> <PUBCHEM_CACTVS_HBOND_DONOR>
1

> <PUBCHEM_CACTVS_ROTATABLE_BOND>
4

> <PUBCHEM_CACTVS_SUBSKEYS>
AAADceB7oAAAAAAAAAAAAAAAAAAAAWLAAAAwYAAABYAAAACx9AAAHgAYAAAADAjBmwQ10IfMEACqAidzdACShCs1gqAdyCE4ZNiIKLLAnZGEIQhonALIyacYiQCeCAAAAAAAAAAQAAAAAAAAAAAAAAAAAA==

> <PUBCHEM_IUPAC_OPENEYE_NAME>
N-[4-(6,7,8,9-tetrahydro-5H-[1,2,4]triazolo[4,3-a]azepin-3-yl)phenyl]-4-(1,2,4-triazol-1-yl)benzamide

> <PUBCHEM_IUPAC_CAS_NAME>
N-[4-(6,7,8,9-tetrahydro-5H-[1,2,4]triazolo[4,3-a]azepin-3-yl)phenyl]-4-(1,2,4-triazol-1-yl)benzamide

> <PUBCHEM_IUPAC_NAME>
N-[4-(6,7,8,9-tetrahydro-5H-[1,2,4]triazolo[4,3-a]azepin-3-yl)phenyl]-4-(1,2,4-triazol-1-yl)benzamide

> <PUBCHEM_IUPAC_SYSTEMATIC_NAME>
N-[4-(6,7,8,9-tetrahydro-5H-[1,2,4]triazolo[4,3-a]azepin-3-yl)phenyl]-4-(1,2,4-triazol-1-yl)benzamide

> <PUBCHEM_IUPAC_TRADITIONAL_NAME>
N-[4-(6,7,8,9-tetrahydro-5H-[1,2,4]triazol[4,3-a]azepin-3-yl)phenyl]-4-(1,2,4-triazol-1-yl)benzamide

> <PUBCHEM_IUPAC_INCHI>
InChI=1S/C22H21N7O/c30-22(17-7-11-19(12-8-17)29-15-23-14-24-29)25-18-9-5-16(6-10-18)21-27-26-20-4-2-1-3-13-28(20)21/h5-12,14-15H,1-4,13H2,(H,25,30)

> <PUBCHEM_IUPAC_INCHIKEY>
IYASYPDTKDERCF-UHFFFAOYSA-N

> <PUBCHEM_XLOGP3_AA>
2.7

> <PUBCHEM_EXACT_MASS>
399.180758

> <PUBCHEM_MOLECULAR_FORMULA>
C22H21N7O

> <PUBCHEM_MOLECULAR_WEIGHT>
399.44844

> <PUBCHEM_OPENEYE_CAN_SMILES>
C1CCC2=NN=C(N2CC1)C3=CC=C(C=C3)NC(=O)C4=CC=C(C=C4)N5C=NC=N5

> <PUBCHEM_OPENEYE_ISO_SMILES>
C1CCC2=NN=C(N2CC1)C3=CC=C(C=C3)NC(=O)C4=CC=C(C=C4)N5C=NC=N5

> <PUBCHEM_CACTVS_TPSA>
90.5

> <PUBCHEM_MONOISOTOPIC_WEIGHT>
399.180758

> <PUBCHEM_TOTAL_CHARGE>
0

> <PUBCHEM_HEAVY_ATOM_COUNT>
30

> <PUBCHEM_ATOM_DEF_STEREO_COUNT>
0

> <PUBCHEM_ATOM_UDEF_STEREO_COUNT>
0

> <PUBCHEM_BOND_DEF_STEREO_COUNT>
0

> <PUBCHEM_BOND_UDEF_STEREO_COUNT>
0

> <PUBCHEM_ISOTOPIC_ATOM_COUNT>
0

> <PUBCHEM_COMPONENT_COUNT>
1

> <PUBCHEM_CACTVS_TAUTO_COUNT>
3

> <PUBCHEM_COORDINATE_TYPE>
1
5
255

> <PUBCHEM_BONDANNOTATIONS>
16  17  8
16  18  8
17  19  8
18  20  8
19  21  8
2  14  8
2  15  8
20  21  8
23  25  8
23  26  8
24  27  8
24  28  8
25  27  8
26  28  8
3  14  8
3  4  8
4  15  8
6  29  8
6  7  8
7  30  8
8  29  8
8  30  8

$$$$

