51090896
  -OEChem-06241223003D

 53 55  0     0  0  0  0  0  0999 V2000
   -1.5440   -0.5364    0.9897 O   0  0  0  0  0  0  0  0  0  0  0  0
   -4.0383   -0.6347   -1.6406 O   0  0  0  0  0  0  0  0  0  0  0  0
   -4.9631    2.0122    1.3103 O   0  0  0  0  0  0  0  0  0  0  0  0
   -0.1664   -2.2350    0.1997 N   0  0  0  0  0  0  0  0  0  0  0  0
   -3.7895   -1.8525    0.3253 N   0  0  0  0  0  0  0  0  0  0  0  0
   -6.0232    0.8480   -0.4067 N   0  0  0  0  0  0  0  0  0  0  0  0
    2.9727   -0.1357   -0.3539 C   0  0  0  0  0  0  0  0  0  0  0  0
    5.3984   -0.5960    0.2193 C   0  0  0  0  0  0  0  0  0  0  0  0
    4.2363    1.4096    1.2080 C   0  0  0  0  0  0  0  0  0  0  0  0
    4.8082    1.3675   -1.2459 C   0  0  0  0  0  0  0  0  0  0  0  0
    2.8726    0.7682    0.8976 C   0  0  0  0  0  0  0  0  0  0  0  0
    3.4429    0.7262   -1.5496 C   0  0  0  0  0  0  0  0  0  0  0  0
    4.0315   -1.2320   -0.0881 C   0  0  0  0  0  0  0  0  0  0  0  0
    4.6839    2.2547    0.0040 C   0  0  0  0  0  0  0  0  0  0  0  0
    5.2712    0.3009    1.4618 C   0  0  0  0  0  0  0  0  0  0  0  0
    5.8402    0.2591   -0.9800 C   0  0  0  0  0  0  0  0  0  0  0  0
    1.6142   -0.7720   -0.6595 C   0  0  0  0  0  0  0  0  0  0  0  0
    1.0973   -1.6178    0.4936 C   0  0  0  0  0  0  0  0  0  0  0  0
   -1.3954   -1.6408    0.4731 C   0  0  0  0  0  0  0  0  0  0  0  0
   -2.5513   -2.4988    0.0044 C   0  0  0  0  0  0  0  0  0  0  0  0
   -4.4421   -0.9640   -0.5281 C   0  0  0  0  0  0  0  0  0  0  0  0
   -5.7542   -0.4823    0.0532 C   0  0  0  0  0  0  0  0  0  0  0  0
   -5.6037    1.9931    0.2626 C   0  0  0  0  0  0  0  0  0  0  0  0
   -5.9983    3.2587   -0.4502 C   0  0  0  0  0  0  0  0  0  0  0  0
    6.1390   -1.3821    0.4048 H   0  0  0  0  0  0  0  0  0  0  0  0
    4.1522    2.0469    2.0954 H   0  0  0  0  0  0  0  0  0  0  0  0
    5.1293    1.9746   -2.0997 H   0  0  0  0  0  0  0  0  0  0  0  0
    3.7610   -1.8594    0.7677 H   0  0  0  0  0  0  0  0  0  0  0  0
    4.1189   -1.8968   -0.9570 H   0  0  0  0  0  0  0  0  0  0  0  0
    3.5189    0.1102   -2.4549 H   0  0  0  0  0  0  0  0  0  0  0  0
    2.7070    1.5118   -1.7641 H   0  0  0  0  0  0  0  0  0  0  0  0
    2.1200    1.5520    0.7436 H   0  0  0  0  0  0  0  0  0  0  0  0
    2.5690    0.2032    1.7851 H   0  0  0  0  0  0  0  0  0  0  0  0
    4.9725   -0.3000    2.3295 H   0  0  0  0  0  0  0  0  0  0  0  0
    6.2444    0.7458    1.7032 H   0  0  0  0  0  0  0  0  0  0  0  0
    6.8235    0.7028   -0.7814 H   0  0  0  0  0  0  0  0  0  0  0  0
    5.9498   -0.3723   -1.8703 H   0  0  0  0  0  0  0  0  0  0  0  0
    3.9613    3.0597   -0.1782 H   0  0  0  0  0  0  0  0  0  0  0  0
    5.6466    2.7340    0.2201 H   0  0  0  0  0  0  0  0  0  0  0  0
    1.6860   -1.3948   -1.5611 H   0  0  0  0  0  0  0  0  0  0  0  0
    0.8794    0.0100   -0.8929 H   0  0  0  0  0  0  0  0  0  0  0  0
    1.7706   -2.4464    0.7250 H   0  0  0  0  0  0  0  0  0  0  0  0
    0.9584   -1.0270    1.4022 H   0  0  0  0  0  0  0  0  0  0  0  0
   -0.1524   -3.1470   -0.2480 H   0  0  0  0  0  0  0  0  0  0  0  0
   -2.4768   -2.6535   -1.0765 H   0  0  0  0  0  0  0  0  0  0  0  0
   -2.5253   -3.4637    0.5192 H   0  0  0  0  0  0  0  0  0  0  0  0
   -4.2040   -2.0618    1.2288 H   0  0  0  0  0  0  0  0  0  0  0  0
   -5.7273   -0.4905    1.1472 H   0  0  0  0  0  0  0  0  0  0  0  0
   -6.5568   -1.1393   -0.2942 H   0  0  0  0  0  0  0  0  0  0  0  0
   -6.5275    0.9503   -1.2829 H   0  0  0  0  0  0  0  0  0  0  0  0
   -7.0386    3.2011   -0.7831 H   0  0  0  0  0  0  0  0  0  0  0  0
   -5.8960    4.1101    0.2283 H   0  0  0  0  0  0  0  0  0  0  0  0
   -5.3466    3.4056   -1.3157 H   0  0  0  0  0  0  0  0  0  0  0  0
  1 19  2  0  0  0  0
  2 21  2  0  0  0  0
  3 23  2  0  0  0  0
  4 18  1  0  0  0  0
  4 19  1  0  0  0  0
  4 44  1  0  0  0  0
  5 20  1  0  0  0  0
  5 21  1  0  0  0  0
  5 47  1  0  0  0  0
  6 22  1  0  0  0  0
  6 23  1  0  0  0  0
  6 50  1  0  0  0  0
  7 11  1  0  0  0  0
  7 12  1  0  0  0  0
  7 13  1  0  0  0  0
  7 17  1  0  0  0  0
  8 13  1  0  0  0  0
  8 15  1  0  0  0  0
  8 16  1  0  0  0  0
  8 25  1  0  0  0  0
  9 11  1  0  0  0  0
  9 14  1  0  0  0  0
  9 15  1  0  0  0  0
  9 26  1  0  0  0  0
 10 12  1  0  0  0  0
 10 14  1  0  0  0  0
 10 16  1  0  0  0  0
 10 27  1  0  0  0  0
 11 32  1  0  0  0  0
 11 33  1  0  0  0  0
 12 30  1  0  0  0  0
 12 31  1  0  0  0  0
 13 28  1  0  0  0  0
 13 29  1  0  0  0  0
 14 38  1  0  0  0  0
 14 39  1  0  0  0  0
 15 34  1  0  0  0  0
 15 35  1  0  0  0  0
 16 36  1  0  0  0  0
 16 37  1  0  0  0  0
 17 18  1  0  0  0  0
 17 40  1  0  0  0  0
 17 41  1  0  0  0  0
 18 42  1  0  0  0  0
 18 43  1  0  0  0  0
 19 20  1  0  0  0  0
 20 45  1  0  0  0  0
 20 46  1  0  0  0  0
 21 22  1  0  0  0  0
 22 48  1  0  0  0  0
 22 49  1  0  0  0  0
 23 24  1  0  0  0  0
 24 51  1  0  0  0  0
 24 52  1  0  0  0  0
 24 53  1  0  0  0  0
M  END
> <PUBCHEM_COMPOUND_CID>
51090896

> <PUBCHEM_CONFORMER_RMSD>
1

> <PUBCHEM_CONFORMER_DIVERSEORDER>
1
66
28
43
42
9
10
57
33
8
36
46
30
55
21
73
13
60
6
64
32
40
61
59
34
22
17
58
5
72
25
70
15
20
12
68
19
69
4
71
11
47
26
63
49
37
7
44
65
29
18
16
39
54
56
53
14
51
24
2
38
31
41
35
45
50
48
62
3
67
52
27
23

> <PUBCHEM_MMFF94_PARTIAL_CHARGES>
16
1 -0.57
18 0.3
19 0.57
2 -0.57
20 0.36
21 0.57
22 0.36
23 0.57
24 0.06
3 -0.57
4 -0.73
44 0.37
47 0.37
5 -0.73
50 0.37
6 -0.73

> <PUBCHEM_EFFECTIVE_ROTOR_COUNT>
11.2

> <PUBCHEM_PHARMACOPHORE_FEATURES>
10
1 1 acceptor
1 2 acceptor
1 3 acceptor
1 4 donor
1 5 donor
1 6 donor
6 7 8 10 12 13 16 rings
6 7 8 9 11 13 15 rings
6 7 9 10 11 12 14 rings
6 8 9 10 14 15 16 rings

> <PUBCHEM_HEAVY_ATOM_COUNT>
24

> <PUBCHEM_ATOM_DEF_STEREO_COUNT>
0

> <PUBCHEM_ATOM_UDEF_STEREO_COUNT>
0

> <PUBCHEM_BOND_DEF_STEREO_COUNT>
0

> <PUBCHEM_BOND_UDEF_STEREO_COUNT>
0

> <PUBCHEM_ISOTOPIC_ATOM_COUNT>
0

> <PUBCHEM_COMPONENT_COUNT>
1

> <PUBCHEM_CACTVS_TAUTO_COUNT>
8

> <PUBCHEM_CONFORMER_ID>
030B95D000000001

> <PUBCHEM_MMFF94_ENERGY>
49.1591

> <PUBCHEM_FEATURE_SELFOVERLAP>
63.26

> <PUBCHEM_SHAPE_FINGERPRINT>
10447042 23 4967614970980268206
10763959 59 18335695027661400372
11069576 57 14418680549730249180
12422481 6 17418094373153938717
12596602 18 16558748975522418209
13167372 99 18342176682718685962
13785724 45 17839189850513917298
14251751 18 10087638200224469605
14251764 30 10303826388227785962
14251764 38 18266459806615105509
14347329 18 18410295813315958073
14950920 106 15051432930860044677
15183329 4 18334857216785569473
15348495 7 11887958731135150559
17844677 252 18267579113614909899
17959699 21 18408323289466445875
20281389 69 18341895177940941971
20691028 202 18338800143341441697
20715895 44 18410294756537588537
21033648 29 18337958865983612482
21623969 137 12607412087242757008
21774942 28 17749670808913277208
22289505 5 18113894940878614178
23559900 14 18262794052729342654
2748736 6 18342185492150524877
2838139 119 18335426755182068439
312425 54 11815627406062162487
314194 84 6771871796051042790
3680242 22 17918278666258886100
44249763 50 17605009034677631715
5104073 3 17560523889545330106
5283173 99 18334295353437768657
6299153 45 18270122455877421234

> <PUBCHEM_SHAPE_MULTIPOLES>
461.36
18.43
2.84
1.26
16.1
1.02
0.07
10.81
0.9
4.24
-0.15
-0.96
0.33
-0.33

> <PUBCHEM_SHAPE_SELFOVERLAP>
959.4

> <PUBCHEM_SHAPE_VOLUME>
254.6

> <PUBCHEM_COORDINATE_TYPE>
2
5
10

$$$$

