9975
  -OEChem-06261204143D

 16 16  0     0  0  0  0  0  0999 V2000
    2.7219   -1.1158    0.0006 F   0  0  0  0  0  0  0  0  0  0  0  0
   -2.0284   -0.9181    0.0000 O   0  0  0  0  0  0  0  0  0  0  0  0
   -0.8212   -0.2895    0.0002 C   0  0  0  0  0  0  0  0  0  0  0  0
    0.3550   -1.0394   -0.0002 C   0  0  0  0  0  0  0  0  0  0  0  0
   -0.7600    1.1040    0.0003 C   0  0  0  0  0  0  0  0  0  0  0  0
    1.5924   -0.3957   -0.0005 C   0  0  0  0  0  0  0  0  0  0  0  0
    0.4776    1.7477    0.0001 C   0  0  0  0  0  0  0  0  0  0  0  0
    1.6538    0.9978   -0.0003 C   0  0  0  0  0  0  0  0  0  0  0  0
   -3.1911   -0.0910   -0.0001 C   0  0  0  0  0  0  0  0  0  0  0  0
    0.3140   -2.1251   -0.0001 H   0  0  0  0  0  0  0  0  0  0  0  0
   -1.6334    1.7471    0.0006 H   0  0  0  0  0  0  0  0  0  0  0  0
    0.5267    2.8328    0.0003 H   0  0  0  0  0  0  0  0  0  0  0  0
    2.6174    1.4986   -0.0002 H   0  0  0  0  0  0  0  0  0  0  0  0
   -4.0609   -0.7561   -0.0003 H   0  0  0  0  0  0  0  0  0  0  0  0
   -3.2529    0.5163   -0.9095 H   0  0  0  0  0  0  0  0  0  0  0  0
   -3.2532    0.5160    0.9095 H   0  0  0  0  0  0  0  0  0  0  0  0
  1  6  1  0  0  0  0
  2  3  1  0  0  0  0
  2  9  1  0  0  0  0
  3  4  2  0  0  0  0
  3  5  1  0  0  0  0
  4  6  1  0  0  0  0
  4 10  1  0  0  0  0
  5  7  2  0  0  0  0
  5 11  1  0  0  0  0
  6  8  2  0  0  0  0
  7  8  1  0  0  0  0
  7 12  1  0  0  0  0
  8 13  1  0  0  0  0
  9 14  1  0  0  0  0
  9 15  1  0  0  0  0
  9 16  1  0  0  0  0
M  END
> <PUBCHEM_COMPOUND_CID>
9975

> <PUBCHEM_CONFORMER_RMSD>
0.4

> <PUBCHEM_CONFORMER_DIVERSEORDER>
1
2

> <PUBCHEM_MMFF94_PARTIAL_CHARGES>
13
1 -0.19
10 0.15
11 0.15
12 0.15
13 0.15
2 -0.36
3 0.08
4 -0.15
5 -0.15
6 0.19
7 -0.15
8 -0.15
9 0.28

> <PUBCHEM_EFFECTIVE_ROTOR_COUNT>
1

> <PUBCHEM_PHARMACOPHORE_FEATURES>
2
1 2 acceptor
6 3 4 5 6 7 8 rings

> <PUBCHEM_HEAVY_ATOM_COUNT>
9

> <PUBCHEM_ATOM_DEF_STEREO_COUNT>
0

> <PUBCHEM_ATOM_UDEF_STEREO_COUNT>
0

> <PUBCHEM_BOND_DEF_STEREO_COUNT>
0

> <PUBCHEM_BOND_UDEF_STEREO_COUNT>
0

> <PUBCHEM_ISOTOPIC_ATOM_COUNT>
0

> <PUBCHEM_COMPONENT_COUNT>
1

> <PUBCHEM_CACTVS_TAUTO_COUNT>
1

> <PUBCHEM_CONFORMER_ID>
000026F700000001

> <PUBCHEM_MMFF94_ENERGY>
27.6313

> <PUBCHEM_FEATURE_SELFOVERLAP>
10.148

> <PUBCHEM_SHAPE_FINGERPRINT>
16945 1 18266459802166709184
18185500 45 18335985250953567454
21040471 1 17906453229591647300
23402655 69 18336560360882726293
23552423 10 18272368650621173342
241688 4 18340205318489271432
2748010 2 18410862091658231580
29004967 10 18342174414828189337
5084963 1 18261111889230714971

> <PUBCHEM_SHAPE_MULTIPOLES>
172.07
3.56
1.54
0.59
1.84
0.4
0
-0.89
0
-0.54
0
0.01
0.03
0

> <PUBCHEM_SHAPE_SELFOVERLAP>
355.439

> <PUBCHEM_SHAPE_VOLUME>
99.9

> <PUBCHEM_COORDINATE_TYPE>
2
5
10

$$$$

