17396381
  -OEChem-06241222563D

 44 46  0     0  0  0  0  0  0999 V2000
   -3.9396   -0.7822    0.1468 O   0  0  0  0  0  0  0  0  0  0  0  0
   -1.4377   -1.5061    0.2592 O   0  0  0  0  0  0  0  0  0  0  0  0
   -7.4056   -0.7386    0.1278 O   0  0  0  0  0  0  0  0  0  0  0  0
    4.9250    0.0404   -0.0394 N   0  0  0  0  0  0  0  0  0  0  0  0
   -0.6235    0.6732   -0.1174 N   0  0  0  0  0  0  0  0  0  0  0  0
   -6.1859   -1.3936    0.2468 N   0  0  0  0  0  0  0  0  0  0  0  0
    7.7829   -0.3184    0.1420 C   0  0  0  0  0  0  0  0  0  0  0  0
    7.1233    1.0034    0.5169 C   0  0  0  0  0  0  0  0  0  0  0  0
    6.9580   -1.0348   -0.9200 C   0  0  0  0  0  0  0  0  0  0  0  0
    5.6793    0.7981    0.9694 C   0  0  0  0  0  0  0  0  0  0  0  0
    5.5114   -1.2338   -0.4705 C   0  0  0  0  0  0  0  0  0  0  0  0
    3.5340    0.1995   -0.0586 C   0  0  0  0  0  0  0  0  0  0  0  0
    2.7035   -0.9039    0.1379 C   0  0  0  0  0  0  0  0  0  0  0  0
    2.9787    1.4608   -0.2742 C   0  0  0  0  0  0  0  0  0  0  0  0
    1.3178   -0.7460    0.1184 C   0  0  0  0  0  0  0  0  0  0  0  0
    1.5930    1.6186   -0.2938 C   0  0  0  0  0  0  0  0  0  0  0  0
    0.7625    0.5153   -0.0974 C   0  0  0  0  0  0  0  0  0  0  0  0
   -1.6089   -0.3075    0.0580 C   0  0  0  0  0  0  0  0  0  0  0  0
   -3.0073    0.2636   -0.0336 C   0  0  0  0  0  0  0  0  0  0  0  0
   -5.2642   -0.4404    0.0823 C   0  0  0  0  0  0  0  0  0  0  0  0
   -5.8374    0.8233   -0.1415 C   0  0  0  0  0  0  0  0  0  0  0  0
   -7.1850    0.5810   -0.1032 C   0  0  0  0  0  0  0  0  0  0  0  0
   -8.3744    1.4280   -0.2558 C   0  0  0  0  0  0  0  0  0  0  0  0
    8.7959   -0.1360   -0.2333 H   0  0  0  0  0  0  0  0  0  0  0  0
    7.8755   -0.9531    1.0315 H   0  0  0  0  0  0  0  0  0  0  0  0
    7.6951    1.4908    1.3144 H   0  0  0  0  0  0  0  0  0  0  0  0
    7.1416    1.6757   -0.3501 H   0  0  0  0  0  0  0  0  0  0  0  0
    6.9729   -0.4453   -1.8455 H   0  0  0  0  0  0  0  0  0  0  0  0
    7.4104   -2.0058   -1.1509 H   0  0  0  0  0  0  0  0  0  0  0  0
    5.6576    0.2511    1.9204 H   0  0  0  0  0  0  0  0  0  0  0  0
    5.2387    1.7839    1.1570 H   0  0  0  0  0  0  0  0  0  0  0  0
    4.9532   -1.6558   -1.3156 H   0  0  0  0  0  0  0  0  0  0  0  0
    5.4782   -1.9576    0.3534 H   0  0  0  0  0  0  0  0  0  0  0  0
    3.1023   -1.8972    0.3244 H   0  0  0  0  0  0  0  0  0  0  0  0
    3.6086    2.3303   -0.4441 H   0  0  0  0  0  0  0  0  0  0  0  0
    0.7404   -1.6451    0.2823 H   0  0  0  0  0  0  0  0  0  0  0  0
    1.1739    2.6068   -0.4663 H   0  0  0  0  0  0  0  0  0  0  0  0
   -0.9504    1.6235   -0.2794 H   0  0  0  0  0  0  0  0  0  0  0  0
   -3.1262    0.7201   -1.0236 H   0  0  0  0  0  0  0  0  0  0  0  0
   -3.1210    1.0207    0.7516 H   0  0  0  0  0  0  0  0  0  0  0  0
   -5.3568    1.7762   -0.3072 H   0  0  0  0  0  0  0  0  0  0  0  0
   -8.0963    2.4707   -0.4380 H   0  0  0  0  0  0  0  0  0  0  0  0
   -8.9893    1.3946    0.6490 H   0  0  0  0  0  0  0  0  0  0  0  0
   -8.9838    1.0876   -1.0987 H   0  0  0  0  0  0  0  0  0  0  0  0
  1 19  1  0  0  0  0
  1 20  1  0  0  0  0
  2 18  2  0  0  0  0
  3  6  1  0  0  0  0
  3 22  1  0  0  0  0
  4 10  1  0  0  0  0
  4 11  1  0  0  0  0
  4 12  1  0  0  0  0
  5 17  1  0  0  0  0
  5 18  1  0  0  0  0
  5 38  1  0  0  0  0
  6 20  2  0  0  0  0
  7  8  1  0  0  0  0
  7  9  1  0  0  0  0
  7 24  1  0  0  0  0
  7 25  1  0  0  0  0
  8 10  1  0  0  0  0
  8 26  1  0  0  0  0
  8 27  1  0  0  0  0
  9 11  1  0  0  0  0
  9 28  1  0  0  0  0
  9 29  1  0  0  0  0
 10 30  1  0  0  0  0
 10 31  1  0  0  0  0
 11 32  1  0  0  0  0
 11 33  1  0  0  0  0
 12 13  2  0  0  0  0
 12 14  1  0  0  0  0
 13 15  1  0  0  0  0
 13 34  1  0  0  0  0
 14 16  2  0  0  0  0
 14 35  1  0  0  0  0
 15 17  2  0  0  0  0
 15 36  1  0  0  0  0
 16 17  1  0  0  0  0
 16 37  1  0  0  0  0
 18 19  1  0  0  0  0
 19 39  1  0  0  0  0
 19 40  1  0  0  0  0
 20 21  1  0  0  0  0
 21 22  2  0  0  0  0
 21 41  1  0  0  0  0
 22 23  1  0  0  0  0
 23 42  1  0  0  0  0
 23 43  1  0  0  0  0
 23 44  1  0  0  0  0
M  END
> <PUBCHEM_COMPOUND_CID>
17396381

> <PUBCHEM_CONFORMER_RMSD>
0.8

> <PUBCHEM_CONFORMER_DIVERSEORDER>
1
34
25
111
83
53
40
110
33
121
27
102
24
8
45
21
23
120
76
12
94
42
113
73
84
109
115
127
3
14
39
92
91
19
5
61
71
118
107
55
28
116
30
124
16
81
97
64
96
48
11
103
75
87
38
29
86
79
51
36
13
43
41
4
6
119
98
90
72
57
101
99
63
56
89
26
7
112
52
105
2
122
129
67
74
31
47
128
22
18
77
93
95
66
46
54
85
32
58
9
108
60
17
117
20
70
49
59
50
78
104
123
125
65
37
106
82
100
10
80
62
15
35
114
69
44
126
88
68

> <PUBCHEM_MMFF94_PARTIAL_CHARGES>
26
1 -0.34
10 0.37
11 0.37
12 0.1
13 -0.15
14 -0.15
15 -0.15
16 -0.15
17 0.12
18 0.57
19 0.34
2 -0.57
20 0.35
21 -0.15
22 -0.04
23 0.18
3 -0.02
34 0.15
35 0.15
36 0.15
37 0.15
38 0.37
4 -0.84
41 0.15
5 -0.55
6 -0.41

> <PUBCHEM_EFFECTIVE_ROTOR_COUNT>
7.2

> <PUBCHEM_PHARMACOPHORE_FEATURES>
6
1 2 acceptor
1 4 cation
1 5 donor
5 3 6 20 21 22 rings
6 12 13 14 15 16 17 rings
6 4 7 8 9 10 11 rings

> <PUBCHEM_HEAVY_ATOM_COUNT>
23

> <PUBCHEM_ATOM_DEF_STEREO_COUNT>
0

> <PUBCHEM_ATOM_UDEF_STEREO_COUNT>
0

> <PUBCHEM_BOND_DEF_STEREO_COUNT>
0

> <PUBCHEM_BOND_UDEF_STEREO_COUNT>
0

> <PUBCHEM_ISOTOPIC_ATOM_COUNT>
0

> <PUBCHEM_COMPONENT_COUNT>
1

> <PUBCHEM_CACTVS_TAUTO_COUNT>
2

> <PUBCHEM_CONFORMER_ID>
0109729D00000001

> <PUBCHEM_MMFF94_ENERGY>
59.5489

> <PUBCHEM_FEATURE_SELFOVERLAP>
30.446

> <PUBCHEM_SHAPE_FINGERPRINT>
10050765 1 18049723215379737786
100830 39 18340206401454656141
10299344 5 15267342920371359401
10666366 153 18113891711010772612
11315181 36 17894909625564845857
11638347 137 14345788371001469956
11719270 70 18261110781530657542
12091667 2 18410012122848265539
12236239 1 17967532363266468759
12516196 113 18335139791284710696
12838862 33 18339378412588015946
13533116 47 14057269944188427286
13685833 64 18410291415517242726
13885169 127 18410292540836006765
14170010 4 18335421249419168776
14251764 18 17704075101101787811
14251764 46 18410575093253013510
14933364 13 18409730664138852945
15183329 4 18272930544276475041
15419008 47 18411428318630333085
15461852 350 16877951525520260109
15849732 13 18260548917786646237
16120349 18 18187652366845268888
17093844 174 18342458132801046105
18006028 8 17749108898062424816
20238998 120 18409167710139397656
20621476 8 18271807947484326117
21095086 128 13758354466983576537
21150785 3 13686297976240390884
21267235 1 18412539911984242636
21315763 28 18410293580318026893
21792934 111 18334304171776235128
220451 1 15985108492250984107
22224240 67 6194839267931660620
23035841 295 15267344011583163849
23521765 1 18335421270176301059
23559900 14 18261680259443673481
28498 318 18335701671548396526
3004659 81 18202001014561214256
335352 9 18413387618258826598
33684 2 18413109471892287003
3633792 109 17968372446206399147
4073 2 17845367765150849987
444735 82 18340206289780355052
5758199 1 17703790336243620723
8209 1 18410575088958046212

> <PUBCHEM_SHAPE_MULTIPOLES>
440.78
26.26
1.45
0.72
21.23
0.08
0
1
0.19
0.01
0.05
-0.64
0.02
1.05

> <PUBCHEM_SHAPE_SELFOVERLAP>
929.825

> <PUBCHEM_SHAPE_VOLUME>
247.5

> <PUBCHEM_COORDINATE_TYPE>
2
5
10

$$$$

