13176
  -OEChem-06261207513D

 15 14  0     0  0  0  0  0  0999 V2000
   -1.6430   -0.1013   -0.0027 C   0  0  0  0  0  0  0  0  0  0  0  0
   -2.5483    1.0942   -0.0489 C   0  0  0  0  0  0  0  0  0  0  0  0
   -2.1259   -1.3526    0.0193 C   0  0  0  0  0  0  0  0  0  0  0  0
   -0.2306    0.1024    0.0181 C   0  0  0  0  0  0  0  0  0  0  0  0
    0.9574    0.2788    0.0352 C   0  0  0  0  0  0  0  0  0  0  0  0
    2.3607    0.4925    0.0564 C   0  0  0  0  0  0  0  0  0  0  0  0
    3.2297   -0.5139   -0.0776 C   0  0  0  0  0  0  0  0  0  0  0  0
   -2.3847    1.7310    0.8271 H   0  0  0  0  0  0  0  0  0  0  0  0
   -3.6063    0.8109   -0.0611 H   0  0  0  0  0  0  0  0  0  0  0  0
   -2.3523    1.6870   -0.9487 H   0  0  0  0  0  0  0  0  0  0  0  0
   -3.1941   -1.5438    0.0045 H   0  0  0  0  0  0  0  0  0  0  0  0
   -1.4711   -2.2182    0.0527 H   0  0  0  0  0  0  0  0  0  0  0  0
    2.7259    1.5060    0.1857 H   0  0  0  0  0  0  0  0  0  0  0  0
    4.2971   -0.3209   -0.0576 H   0  0  0  0  0  0  0  0  0  0  0  0
    2.9046   -1.5409   -0.2088 H   0  0  0  0  0  0  0  0  0  0  0  0
  1  2  1  0  0  0  0
  1  3  2  0  0  0  0
  1  4  1  0  0  0  0
  2  8  1  0  0  0  0
  2  9  1  0  0  0  0
  2 10  1  0  0  0  0
  3 11  1  0  0  0  0
  3 12  1  0  0  0  0
  4  5  3  0  0  0  0
  5  6  1  0  0  0  0
  6  7  2  0  0  0  0
  6 13  1  0  0  0  0
  7 14  1  0  0  0  0
  7 15  1  0  0  0  0
M  END
> <PUBCHEM_COMPOUND_CID>
13176

> <PUBCHEM_CONFORMER_RMSD>
0.4

> <PUBCHEM_CONFORMER_DIVERSEORDER>
1

> <PUBCHEM_MMFF94_PARTIAL_CHARGES>
12
1 -0.07
11 0.15
12 0.15
13 0.15
14 0.15
15 0.15
2 0.14
3 -0.3
4 -0.06
5 -0.06
6 -0.09
7 -0.3

> <PUBCHEM_EFFECTIVE_ROTOR_COUNT>
0

> <PUBCHEM_PHARMACOPHORE_FEATURES>
1
1 7 hydrophobe

> <PUBCHEM_HEAVY_ATOM_COUNT>
7

> <PUBCHEM_ATOM_DEF_STEREO_COUNT>
0

> <PUBCHEM_ATOM_UDEF_STEREO_COUNT>
0

> <PUBCHEM_BOND_DEF_STEREO_COUNT>
0

> <PUBCHEM_BOND_UDEF_STEREO_COUNT>
0

> <PUBCHEM_ISOTOPIC_ATOM_COUNT>
0

> <PUBCHEM_COMPONENT_COUNT>
1

> <PUBCHEM_CACTVS_TAUTO_COUNT>
1

> <PUBCHEM_CONFORMER_ID>
0000337800000001

> <PUBCHEM_MMFF94_ENERGY>
3.0431

> <PUBCHEM_FEATURE_SELFOVERLAP>
5.074

> <PUBCHEM_SHAPE_FINGERPRINT>
11062470 55 15357701915439326953
12932741 1 17968104092201718984
12932764 1 17676488289857276564
14325111 11 18410575072110492906
14390081 3 18335426763450340600
23552423 10 18201438047580651190
29004967 10 17240475893016311714
3248919 1 17561365037314960496
5460574 1 9223237346933613328

> <PUBCHEM_SHAPE_MULTIPOLES>
144.06
5
1.14
0.62
2.45
0.17
0
0.23
0.1
-0.78
0
0
0
0.06

> <PUBCHEM_SHAPE_SELFOVERLAP>
267.1

> <PUBCHEM_SHAPE_VOLUME>
90.5

> <PUBCHEM_COORDINATE_TYPE>
2
5
10

$$$$

