9331
  -OEChem-06261203372D

 66 69  0     0  0  0  0  0  0999 V2000
    5.5397    4.4656    0.0000 O   0  0  0  0  0  0  0  0  0  0  0  0
    6.6321    3.2576    0.0000 N   0  0  0  0  0  0  0  0  0  0  0  0
    5.8660    0.6148    0.0000 N   0  0  0  0  0  0  0  0  0  0  0  0
    4.3660    3.4808    0.0000 N   0  0  0  0  0  0  0  0  0  0  0  0
    7.0000   -1.8852    0.0000 N   0  0  0  0  0  0  0  0  0  0  0  0
    5.8660    2.6148    0.0000 C   0  0  0  0  0  0  0  0  0  0  0  0
    6.7320    2.1148    0.0000 C   0  0  0  0  0  0  0  0  0  0  0  0
    5.0000    2.1148    0.0000 C   0  0  0  0  0  0  0  0  0  0  0  0
    6.7320    1.1148    0.0000 C   0  0  0  0  0  0  0  0  0  0  0  0
    5.0000    1.1148    0.0000 C   0  0  0  0  0  0  0  0  0  0  0  0
    7.5718    2.9156    0.0000 C   0  0  0  0  0  0  0  0  0  0  0  0
    6.4584    4.2424    0.0000 C   0  0  0  0  0  0  0  0  0  0  0  0
    7.2245    4.8852    0.0000 C   0  0  0  0  0  0  0  0  0  0  0  0
    8.3378    3.5584    0.0000 C   0  0  0  0  0  0  0  0  0  0  0  0
    5.3660    3.4808    0.0000 C   0  0  0  0  0  0  0  0  0  0  0  0
    8.1642    4.5432    0.0000 C   0  0  0  0  0  0  0  0  0  0  0  0
    5.8660   -0.3852    0.0000 C   0  0  0  0  0  0  0  0  0  0  0  0
    5.0000   -0.8852    0.0000 C   0  0  0  0  0  0  0  0  0  0  0  0
    5.0000   -1.8852    0.0000 C   0  0  0  0  0  0  0  0  0  0  0  0
    5.0000   -2.8852    0.0000 C   0  0  0  0  0  0  0  0  0  0  0  0
    4.0000   -1.8852    0.0000 C   0  0  0  0  0  0  0  0  0  0  0  0
    6.0000   -1.8852    0.0000 C   0  0  0  0  0  0  0  0  0  0  0  0
    3.5000   -1.0192    0.0000 C   0  0  0  0  0  0  0  0  0  0  0  0
    4.1340   -3.3852    0.0000 C   0  0  0  0  0  0  0  0  0  0  0  0
    3.5000   -2.7512    0.0000 C   0  0  0  0  0  0  0  0  0  0  0  0
    5.8660   -3.3852    0.0000 C   0  0  0  0  0  0  0  0  0  0  0  0
    4.1340   -4.3852    0.0000 C   0  0  0  0  0  0  0  0  0  0  0  0
    2.5000   -1.0192    0.0000 C   0  0  0  0  0  0  0  0  0  0  0  0
    5.8660   -4.3852    0.0000 C   0  0  0  0  0  0  0  0  0  0  0  0
    2.5000   -2.7512    0.0000 C   0  0  0  0  0  0  0  0  0  0  0  0
    5.0000   -4.8852    0.0000 C   0  0  0  0  0  0  0  0  0  0  0  0
    2.0000   -1.8852    0.0000 C   0  0  0  0  0  0  0  0  0  0  0  0
    4.7880    2.6974    0.0000 H   0  0  0  0  0  0  0  0  0  0  0  0
    4.3894    2.0072    0.0000 H   0  0  0  0  0  0  0  0  0  0  0  0
    7.3426    2.0072    0.0000 H   0  0  0  0  0  0  0  0  0  0  0  0
    6.9441    2.6974    0.0000 H   0  0  0  0  0  0  0  0  0  0  0  0
    6.9441    0.5322    0.0000 H   0  0  0  0  0  0  0  0  0  0  0  0
    7.3426    1.2225    0.0000 H   0  0  0  0  0  0  0  0  0  0  0  0
    4.3894    1.2225    0.0000 H   0  0  0  0  0  0  0  0  0  0  0  0
    4.7880    0.5322    0.0000 H   0  0  0  0  0  0  0  0  0  0  0  0
    7.2618    2.3786    0.0000 H   0  0  0  0  0  0  0  0  0  0  0  0
    8.0467    2.5170    0.0000 H   0  0  0  0  0  0  0  0  0  0  0  0
    6.1484    4.7793    0.0000 H   0  0  0  0  0  0  0  0  0  0  0  0
    5.8758    4.0304    0.0000 H   0  0  0  0  0  0  0  0  0  0  0  0
    8.6478    3.0214    0.0000 H   0  0  0  0  0  0  0  0  0  0  0  0
    8.9204    3.7704    0.0000 H   0  0  0  0  0  0  0  0  0  0  0  0
    7.5345    5.4221    0.0000 H   0  0  0  0  0  0  0  0  0  0  0  0
    6.7495    5.2837    0.0000 H   0  0  0  0  0  0  0  0  0  0  0  0
    8.7842    4.5432    0.0000 H   0  0  0  0  0  0  0  0  0  0  0  0
    8.2718    5.1537    0.0000 H   0  0  0  0  0  0  0  0  0  0  0  0
    6.0781   -0.9678    0.0000 H   0  0  0  0  0  0  0  0  0  0  0  0
    6.4766   -0.2775    0.0000 H   0  0  0  0  0  0  0  0  0  0  0  0
    4.7880   -0.3026    0.0000 H   0  0  0  0  0  0  0  0  0  0  0  0
    4.3894   -0.9929    0.0000 H   0  0  0  0  0  0  0  0  0  0  0  0
    4.0560    4.0178    0.0000 H   0  0  0  0  0  0  0  0  0  0  0  0
    4.0560    2.9439    0.0000 H   0  0  0  0  0  0  0  0  0  0  0  0
    3.8100   -0.4822    0.0000 H   0  0  0  0  0  0  0  0  0  0  0  0
    3.5970   -3.0752    0.0000 H   0  0  0  0  0  0  0  0  0  0  0  0
    3.8100   -3.2882    0.0000 H   0  0  0  0  0  0  0  0  0  0  0  0
    6.4030   -3.0752    0.0000 H   0  0  0  0  0  0  0  0  0  0  0  0
    3.5970   -4.6952    0.0000 H   0  0  0  0  0  0  0  0  0  0  0  0
    2.1900   -0.4822    0.0000 H   0  0  0  0  0  0  0  0  0  0  0  0
    6.4030   -4.6952    0.0000 H   0  0  0  0  0  0  0  0  0  0  0  0
    2.1900   -3.2882    0.0000 H   0  0  0  0  0  0  0  0  0  0  0  0
    5.0000   -5.5052    0.0000 H   0  0  0  0  0  0  0  0  0  0  0  0
    1.3800   -1.8852    0.0000 H   0  0  0  0  0  0  0  0  0  0  0  0
  1 15  2  0  0  0  0
  2  6  1  0  0  0  0
  2 11  1  0  0  0  0
  2 12  1  0  0  0  0
  3  9  1  0  0  0  0
  3 10  1  0  0  0  0
  3 17  1  0  0  0  0
  4 15  1  0  0  0  0
  4 55  1  0  0  0  0
  4 56  1  0  0  0  0
  5 22  3  0  0  0  0
  6  7  1  0  0  0  0
  6  8  1  0  0  0  0
  6 15  1  0  0  0  0
  7  9  1  0  0  0  0
  7 35  1  0  0  0  0
  7 36  1  0  0  0  0
  8 10  1  0  0  0  0
  8 33  1  0  0  0  0
  8 34  1  0  0  0  0
  9 37  1  0  0  0  0
  9 38  1  0  0  0  0
 10 39  1  0  0  0  0
 10 40  1  0  0  0  0
 11 14  1  0  0  0  0
 11 41  1  0  0  0  0
 11 42  1  0  0  0  0
 12 13  1  0  0  0  0
 12 43  1  0  0  0  0
 12 44  1  0  0  0  0
 13 16  1  0  0  0  0
 13 47  1  0  0  0  0
 13 48  1  0  0  0  0
 14 16  1  0  0  0  0
 14 45  1  0  0  0  0
 14 46  1  0  0  0  0
 16 49  1  0  0  0  0
 16 50  1  0  0  0  0
 17 18  1  0  0  0  0
 17 51  1  0  0  0  0
 17 52  1  0  0  0  0
 18 19  1  0  0  0  0
 18 53  1  0  0  0  0
 18 54  1  0  0  0  0
 19 20  1  0  0  0  0
 19 21  1  0  0  0  0
 19 22  1  0  0  0  0
 20 24  2  0  0  0  0
 20 26  1  0  0  0  0
 21 23  2  0  0  0  0
 21 25  1  0  0  0  0
 23 28  1  0  0  0  0
 23 57  1  0  0  0  0
 24 27  1  0  0  0  0
 24 58  1  0  0  0  0
 25 30  2  0  0  0  0
 25 59  1  0  0  0  0
 26 29  2  0  0  0  0
 26 60  1  0  0  0  0
 27 31  2  0  0  0  0
 27 61  1  0  0  0  0
 28 32  2  0  0  0  0
 28 62  1  0  0  0  0
 29 31  1  0  0  0  0
 29 63  1  0  0  0  0
 30 32  1  0  0  0  0
 30 64  1  0  0  0  0
 31 65  1  0  0  0  0
 32 66  1  0  0  0  0
M  END
> <PUBCHEM_COMPOUND_CID>
9331

> <PUBCHEM_COMPOUND_CANONICALIZED>
1

> <PUBCHEM_CACTVS_COMPLEXITY>
638

> <PUBCHEM_CACTVS_HBOND_ACCEPTOR>
4

> <PUBCHEM_CACTVS_HBOND_DONOR>
1

> <PUBCHEM_CACTVS_ROTATABLE_BOND>
7

> <PUBCHEM_CACTVS_SUBSKEYS>
AAADcfB7oAAAAAAAAAAAAAAAAAAAAAAAAAA8eIEAAAAAAAABQAAAHgAQAAAADojBmAQwAINAAACYBiFSEAACAAAgAAAIiAGIAIgI4DKA0TCUIAAggACIiA8UgMAPgAAAAAAAAAAAAAAAAAAAAAAAAAAAAA==

> <PUBCHEM_IUPAC_OPENEYE_NAME>
1-(3-cyano-3,3-diphenyl-propyl)-4-(1-piperidyl)piperidine-4-carboxamide

> <PUBCHEM_IUPAC_CAS_NAME>
1-(3-cyano-3,3-diphenylpropyl)-4-(1-piperidinyl)-4-piperidinecarboxamide

> <PUBCHEM_IUPAC_NAME>
1-(3-cyano-3,3-diphenylpropyl)-4-piperidin-1-ylpiperidine-4-carboxamide

> <PUBCHEM_IUPAC_SYSTEMATIC_NAME>
1-(3-cyano-3,3-diphenyl-propyl)-4-piperidin-1-yl-piperidine-4-carboxamide

> <PUBCHEM_IUPAC_TRADITIONAL_NAME>
1-(3-cyano-3,3-diphenyl-propyl)-4-piperidino-isonipecotamide

> <PUBCHEM_IUPAC_INCHI>
InChI=1S/C27H34N4O/c28-22-26(23-10-4-1-5-11-23,24-12-6-2-7-13-24)14-19-30-20-15-27(16-21-30,25(29)32)31-17-8-3-9-18-31/h1-2,4-7,10-13H,3,8-9,14-21H2,(H2,29,32)

> <PUBCHEM_IUPAC_INCHIKEY>
IHEHEFLXQFOQJO-UHFFFAOYSA-N

> <PUBCHEM_XLOGP3_AA>
3.7

> <PUBCHEM_EXACT_MASS>
430.273262

> <PUBCHEM_MOLECULAR_FORMULA>
C27H34N4O

> <PUBCHEM_MOLECULAR_WEIGHT>
430.58506

> <PUBCHEM_OPENEYE_CAN_SMILES>
C1CCN(CC1)C2(CCN(CC2)CCC(C#N)(C3=CC=CC=C3)C4=CC=CC=C4)C(=O)N

> <PUBCHEM_OPENEYE_ISO_SMILES>
C1CCN(CC1)C2(CCN(CC2)CCC(C#N)(C3=CC=CC=C3)C4=CC=CC=C4)C(=O)N

> <PUBCHEM_CACTVS_TPSA>
73.4

> <PUBCHEM_MONOISOTOPIC_WEIGHT>
430.273262

> <PUBCHEM_TOTAL_CHARGE>
0

> <PUBCHEM_HEAVY_ATOM_COUNT>
32

> <PUBCHEM_ATOM_DEF_STEREO_COUNT>
0

> <PUBCHEM_ATOM_UDEF_STEREO_COUNT>
0

> <PUBCHEM_BOND_DEF_STEREO_COUNT>
0

> <PUBCHEM_BOND_UDEF_STEREO_COUNT>
0

> <PUBCHEM_ISOTOPIC_ATOM_COUNT>
0

> <PUBCHEM_COMPONENT_COUNT>
1

> <PUBCHEM_CACTVS_TAUTO_COUNT>
2

> <PUBCHEM_COORDINATE_TYPE>
1
5
255

> <PUBCHEM_BONDANNOTATIONS>
20  24  8
20  26  8
21  23  8
21  25  8
23  28  8
24  27  8
25  30  8
26  29  8
27  31  8
28  32  8
29  31  8
30  32  8

$$$$

