17395606
  -OEChem-06241222512D

 54 57  0     0  0  0  0  0  0999 V2000
    3.7320    3.4715    0.0000 S   0  0  0  0  0  0  0  0  0  0  0  0
    4.7320    3.4715    0.0000 O   0  0  0  0  0  0  0  0  0  0  0  0
    2.7320    3.4715    0.0000 O   0  0  0  0  0  0  0  0  0  0  0  0
    4.5981   -1.0285    0.0000 O   0  0  0  0  0  0  0  0  0  0  0  0
    7.2437   -0.6217    0.0000 N   0  0  0  0  0  0  0  0  0  0  0  0
    5.4641    0.4715    0.0000 N   0  0  0  0  0  0  0  0  0  0  0  0
    7.9128   -1.3649    0.0000 N   0  0  0  0  0  0  0  0  0  0  0  0
    3.7320    4.4715    0.0000 N   0  0  0  0  0  0  0  0  0  0  0  0
    3.7320    2.4715    0.0000 C   0  0  0  0  0  0  0  0  0  0  0  0
    6.3301   -1.0285    0.0000 C   0  0  0  0  0  0  0  0  0  0  0  0
    2.8660    1.9715    0.0000 C   0  0  0  0  0  0  0  0  0  0  0  0
    4.5981    0.9715    0.0000 C   0  0  0  0  0  0  0  0  0  0  0  0
    4.5981    1.9715    0.0000 C   0  0  0  0  0  0  0  0  0  0  0  0
    7.4128   -2.2309    0.0000 C   0  0  0  0  0  0  0  0  0  0  0  0
    6.4347   -2.0230    0.0000 C   0  0  0  0  0  0  0  0  0  0  0  0
    5.4641   -0.5285    0.0000 C   0  0  0  0  0  0  0  0  0  0  0  0
    2.8660    0.9715    0.0000 C   0  0  0  0  0  0  0  0  0  0  0  0
    3.7320    0.4715    0.0000 C   0  0  0  0  0  0  0  0  0  0  0  0
    7.4516    0.3564    0.0000 C   0  0  0  0  0  0  0  0  0  0  0  0
    7.8195   -3.1444    0.0000 C   0  0  0  0  0  0  0  0  0  0  0  0
    2.0000    2.4715    0.0000 C   0  0  0  0  0  0  0  0  0  0  0  0
    8.4026    0.6654    0.0000 C   0  0  0  0  0  0  0  0  0  0  0  0
    6.7084    1.0256    0.0000 C   0  0  0  0  0  0  0  0  0  0  0  0
    7.2318   -3.9535    0.0000 C   0  0  0  0  0  0  0  0  0  0  0  0
    8.8141   -3.2490    0.0000 C   0  0  0  0  0  0  0  0  0  0  0  0
    4.5981    4.9715    0.0000 C   0  0  0  0  0  0  0  0  0  0  0  0
    8.6106    1.6436    0.0000 C   0  0  0  0  0  0  0  0  0  0  0  0
    6.9164    2.0037    0.0000 C   0  0  0  0  0  0  0  0  0  0  0  0
    7.6385   -4.8670    0.0000 C   0  0  0  0  0  0  0  0  0  0  0  0
    9.2208   -4.1625    0.0000 C   0  0  0  0  0  0  0  0  0  0  0  0
    7.8674    2.3127    0.0000 C   0  0  0  0  0  0  0  0  0  0  0  0
    8.6330   -4.9715    0.0000 C   0  0  0  0  0  0  0  0  0  0  0  0
    5.1350    2.2815    0.0000 H   0  0  0  0  0  0  0  0  0  0  0  0
    5.9739   -2.4378    0.0000 H   0  0  0  0  0  0  0  0  0  0  0  0
    6.0010    0.7815    0.0000 H   0  0  0  0  0  0  0  0  0  0  0  0
    2.3291    0.6615    0.0000 H   0  0  0  0  0  0  0  0  0  0  0  0
    3.7320   -0.1485    0.0000 H   0  0  0  0  0  0  0  0  0  0  0  0
    2.3100    3.0085    0.0000 H   0  0  0  0  0  0  0  0  0  0  0  0
    1.4631    2.7815    0.0000 H   0  0  0  0  0  0  0  0  0  0  0  0
    1.6900    1.9346    0.0000 H   0  0  0  0  0  0  0  0  0  0  0  0
    3.1951    4.7815    0.0000 H   0  0  0  0  0  0  0  0  0  0  0  0
    8.8634    0.2506    0.0000 H   0  0  0  0  0  0  0  0  0  0  0  0
    6.1188    0.8340    0.0000 H   0  0  0  0  0  0  0  0  0  0  0  0
    6.6152   -3.8886    0.0000 H   0  0  0  0  0  0  0  0  0  0  0  0
    9.1785   -2.7474    0.0000 H   0  0  0  0  0  0  0  0  0  0  0  0
    4.9081    4.4346    0.0000 H   0  0  0  0  0  0  0  0  0  0  0  0
    5.1350    5.2815    0.0000 H   0  0  0  0  0  0  0  0  0  0  0  0
    4.2881    5.5085    0.0000 H   0  0  0  0  0  0  0  0  0  0  0  0
    9.2002    1.8352    0.0000 H   0  0  0  0  0  0  0  0  0  0  0  0
    6.4556    2.4186    0.0000 H   0  0  0  0  0  0  0  0  0  0  0  0
    7.2741   -5.3686    0.0000 H   0  0  0  0  0  0  0  0  0  0  0  0
    9.8374   -4.2273    0.0000 H   0  0  0  0  0  0  0  0  0  0  0  0
    7.9963    2.9192    0.0000 H   0  0  0  0  0  0  0  0  0  0  0  0
    8.8852   -5.5379    0.0000 H   0  0  0  0  0  0  0  0  0  0  0  0
  1  2  2  0  0  0  0
  1  3  2  0  0  0  0
  1  8  1  0  0  0  0
  1  9  1  0  0  0  0
  4 16  2  0  0  0  0
  5  7  1  0  0  0  0
  5 10  1  0  0  0  0
  5 19  1  0  0  0  0
  6 12  1  0  0  0  0
  6 16  1  0  0  0  0
  6 35  1  0  0  0  0
  7 14  2  0  0  0  0
  8 26  1  0  0  0  0
  8 41  1  0  0  0  0
  9 11  2  0  0  0  0
  9 13  1  0  0  0  0
 10 15  2  0  0  0  0
 10 16  1  0  0  0  0
 11 17  1  0  0  0  0
 11 21  1  0  0  0  0
 12 13  2  0  0  0  0
 12 18  1  0  0  0  0
 13 33  1  0  0  0  0
 14 15  1  0  0  0  0
 14 20  1  0  0  0  0
 15 34  1  0  0  0  0
 17 18  2  0  0  0  0
 17 36  1  0  0  0  0
 18 37  1  0  0  0  0
 19 22  2  0  0  0  0
 19 23  1  0  0  0  0
 20 24  2  0  0  0  0
 20 25  1  0  0  0  0
 21 38  1  0  0  0  0
 21 39  1  0  0  0  0
 21 40  1  0  0  0  0
 22 27  1  0  0  0  0
 22 42  1  0  0  0  0
 23 28  2  0  0  0  0
 23 43  1  0  0  0  0
 24 29  1  0  0  0  0
 24 44  1  0  0  0  0
 25 30  2  0  0  0  0
 25 45  1  0  0  0  0
 26 46  1  0  0  0  0
 26 47  1  0  0  0  0
 26 48  1  0  0  0  0
 27 31  2  0  0  0  0
 27 49  1  0  0  0  0
 28 31  1  0  0  0  0
 28 50  1  0  0  0  0
 29 32  2  0  0  0  0
 29 51  1  0  0  0  0
 30 32  1  0  0  0  0
 30 52  1  0  0  0  0
 31 53  1  0  0  0  0
 32 54  1  0  0  0  0
M  END
> <PUBCHEM_COMPOUND_CID>
17395606

> <PUBCHEM_COMPOUND_CANONICALIZED>
1

> <PUBCHEM_CACTVS_COMPLEXITY>
728

> <PUBCHEM_CACTVS_HBOND_ACCEPTOR>
5

> <PUBCHEM_CACTVS_HBOND_DONOR>
2

> <PUBCHEM_CACTVS_ROTATABLE_BOND>
6

> <PUBCHEM_CACTVS_SUBSKEYS>
AAADceB7sABAAAAAAAAAAAAAAAAAAWAAAAAwYMAAAAAAAAAB1AAAHgQYQAAADAiB3gQywZLIAAKqAyVyVHDSBDAnAgAYmLmwZNgIYPLA1fGUpQxgnADIyYcciICOCAAAACAEAAAQAAAAQAgAAAAAAAAAAA==

> <PUBCHEM_IUPAC_OPENEYE_NAME>
N-[4-methyl-3-(methylsulfamoyl)phenyl]-2,5-diphenyl-pyrazole-3-carboxamide

> <PUBCHEM_IUPAC_CAS_NAME>
N-[4-methyl-3-(methylsulfamoyl)phenyl]-2,5-diphenyl-3-pyrazolecarboxamide

> <PUBCHEM_IUPAC_NAME>
N-[4-methyl-3-(methylsulfamoyl)phenyl]-2,5-diphenylpyrazole-3-carboxamide

> <PUBCHEM_IUPAC_SYSTEMATIC_NAME>
N-[4-methyl-3-(methylsulfamoyl)phenyl]-2,5-diphenyl-pyrazole-3-carboxamide

> <PUBCHEM_IUPAC_TRADITIONAL_NAME>
N-[4-methyl-3-(methylsulfamoyl)phenyl]-2,5-diphenyl-pyrazole-3-carboxamide

> <PUBCHEM_IUPAC_INCHI>
InChI=1S/C24H22N4O3S/c1-17-13-14-19(15-23(17)32(30,31)25-2)26-24(29)22-16-21(18-9-5-3-6-10-18)27-28(22)20-11-7-4-8-12-20/h3-16,25H,1-2H3,(H,26,29)

> <PUBCHEM_IUPAC_INCHIKEY>
FZEMFDPACRMSLI-UHFFFAOYSA-N

> <PUBCHEM_XLOGP3_AA>
4.1

> <PUBCHEM_EXACT_MASS>
446.141262

> <PUBCHEM_MOLECULAR_FORMULA>
C24H22N4O3S

> <PUBCHEM_MOLECULAR_WEIGHT>
446.52148

> <PUBCHEM_OPENEYE_CAN_SMILES>
CC1=C(C=C(C=C1)NC(=O)C2=CC(=NN2C3=CC=CC=C3)C4=CC=CC=C4)S(=O)(=O)NC

> <PUBCHEM_OPENEYE_ISO_SMILES>
CC1=C(C=C(C=C1)NC(=O)C2=CC(=NN2C3=CC=CC=C3)C4=CC=CC=C4)S(=O)(=O)NC

> <PUBCHEM_CACTVS_TPSA>
102

> <PUBCHEM_MONOISOTOPIC_WEIGHT>
446.141262

> <PUBCHEM_TOTAL_CHARGE>
0

> <PUBCHEM_HEAVY_ATOM_COUNT>
32

> <PUBCHEM_ATOM_DEF_STEREO_COUNT>
0

> <PUBCHEM_ATOM_UDEF_STEREO_COUNT>
0

> <PUBCHEM_BOND_DEF_STEREO_COUNT>
0

> <PUBCHEM_BOND_UDEF_STEREO_COUNT>
0

> <PUBCHEM_ISOTOPIC_ATOM_COUNT>
0

> <PUBCHEM_COMPONENT_COUNT>
1

> <PUBCHEM_CACTVS_TAUTO_COUNT>
2

> <PUBCHEM_COORDINATE_TYPE>
1
5
255

> <PUBCHEM_BONDANNOTATIONS>
10  15  8
11  17  8
12  13  8
12  18  8
14  15  8
17  18  8
19  22  8
19  23  8
20  24  8
20  25  8
22  27  8
23  28  8
24  29  8
25  30  8
27  31  8
28  31  8
29  32  8
30  32  8
5  10  8
5  7  8
7  14  8
9  11  8
9  13  8

$$$$

