9831
  -OEChem-06261204063D

 22 22  0     0  0  0  0  0  0999 V2000
    4.6098   -0.2212    0.0060 F   0  0  0  0  0  0  0  0  0  0  0  0
    2.2171   -1.3345   -0.0025 O   0  0  0  0  0  0  0  0  0  0  0  0
    1.1500    0.7674   -0.0010 N   0  0  0  0  0  0  0  0  0  0  0  0
   -0.2083    0.4490   -0.0004 C   0  0  0  0  0  0  0  0  0  0  0  0
   -2.9247   -0.1868    0.0008 C   0  0  0  0  0  0  0  0  0  0  0  0
   -1.1629    1.4662    0.0000 C   0  0  0  0  0  0  0  0  0  0  0  0
   -0.6120   -0.8863   -0.0003 C   0  0  0  0  0  0  0  0  0  0  0  0
   -2.5210    1.1483    0.0007 C   0  0  0  0  0  0  0  0  0  0  0  0
   -1.9702   -1.2041    0.0003 C   0  0  0  0  0  0  0  0  0  0  0  0
   -4.3768   -0.5269    0.0008 C   0  0  0  0  0  0  0  0  0  0  0  0
    2.2441   -0.1083   -0.0021 C   0  0  0  0  0  0  0  0  0  0  0  0
    3.5549    0.6373   -0.0024 C   0  0  0  0  0  0  0  0  0  0  0  0
   -0.8626    2.5110   -0.0005 H   0  0  0  0  0  0  0  0  0  0  0  0
    0.0672   -1.7273   -0.0011 H   0  0  0  0  0  0  0  0  0  0  0  0
   -3.2551    1.9497   -0.0009 H   0  0  0  0  0  0  0  0  0  0  0  0
   -2.2738   -2.2478   -0.0016 H   0  0  0  0  0  0  0  0  0  0  0  0
    1.3626    1.7629   -0.0009 H   0  0  0  0  0  0  0  0  0  0  0  0
   -4.5612   -1.4718    0.5232 H   0  0  0  0  0  0  0  0  0  0  0  0
   -4.9630    0.2425    0.5147 H   0  0  0  0  0  0  0  0  0  0  0  0
   -4.7415   -0.6172   -1.0272 H   0  0  0  0  0  0  0  0  0  0  0  0
    3.6247    1.2682    0.8881 H   0  0  0  0  0  0  0  0  0  0  0  0
    3.6298    1.2575   -0.9000 H   0  0  0  0  0  0  0  0  0  0  0  0
  1 12  1  0  0  0  0
  2 11  2  0  0  0  0
  3  4  1  0  0  0  0
  3 11  1  0  0  0  0
  3 17  1  0  0  0  0
  4  6  2  0  0  0  0
  4  7  1  0  0  0  0
  5  8  2  0  0  0  0
  5  9  1  0  0  0  0
  5 10  1  0  0  0  0
  6  8  1  0  0  0  0
  6 13  1  0  0  0  0
  7  9  2  0  0  0  0
  7 14  1  0  0  0  0
  8 15  1  0  0  0  0
  9 16  1  0  0  0  0
 10 18  1  0  0  0  0
 10 19  1  0  0  0  0
 10 20  1  0  0  0  0
 11 12  1  0  0  0  0
 12 21  1  0  0  0  0
 12 22  1  0  0  0  0
M  END
> <PUBCHEM_COMPOUND_CID>
9831

> <PUBCHEM_CONFORMER_RMSD>
0.6

> <PUBCHEM_CONFORMER_DIVERSEORDER>
1
3
2
4

> <PUBCHEM_MMFF94_PARTIAL_CHARGES>
17
1 -0.34
10 0.14
11 0.57
12 0.4
13 0.15
14 0.15
15 0.15
16 0.15
17 0.37
2 -0.57
3 -0.55
4 0.12
5 -0.14
6 -0.15
7 -0.15
8 -0.15
9 -0.15

> <PUBCHEM_EFFECTIVE_ROTOR_COUNT>
3

> <PUBCHEM_PHARMACOPHORE_FEATURES>
3
1 2 acceptor
1 3 donor
6 4 5 6 7 8 9 rings

> <PUBCHEM_HEAVY_ATOM_COUNT>
12

> <PUBCHEM_ATOM_DEF_STEREO_COUNT>
0

> <PUBCHEM_ATOM_UDEF_STEREO_COUNT>
0

> <PUBCHEM_BOND_DEF_STEREO_COUNT>
0

> <PUBCHEM_BOND_UDEF_STEREO_COUNT>
0

> <PUBCHEM_ISOTOPIC_ATOM_COUNT>
0

> <PUBCHEM_COMPONENT_COUNT>
1

> <PUBCHEM_CACTVS_TAUTO_COUNT>
2

> <PUBCHEM_CONFORMER_ID>
0000266700000001

> <PUBCHEM_MMFF94_ENERGY>
29.1882

> <PUBCHEM_FEATURE_SELFOVERLAP>
15.223

> <PUBCHEM_SHAPE_FINGERPRINT>
11062470 55 18410293596801485886
12032990 46 18340763750569477363
12932764 1 17095538308670751172
13024252 1 15841551877583358537
13380535 76 18411980260787633962
13690532 89 18342459231437084183
14144814 61 18411419539737155360
14325111 11 18410574032496487077
15219456 202 17968369168908852255
200 152 18040442083422133381
20201158 50 18409165506551181466
20510252 161 18187925131438185121
20528008 55 18334862688231104041
20645477 70 18337396061959235535
20871998 184 18187360987504993447
23402539 116 18187653496595234581
23463225 33 18341049700290167718
23552423 10 18200312109055967765
23559900 14 18335425703342179880
3312278 4 18341611490766073019
69090 78 18259990353237771239
7364860 26 18192993725286655560

> <PUBCHEM_SHAPE_MULTIPOLES>
228.83
7.34
1.34
0.59
3.86
0.08
0
-0.81
0.01
-0.38
0
-0.07
0.01
0

> <PUBCHEM_SHAPE_SELFOVERLAP>
470.189

> <PUBCHEM_SHAPE_VOLUME>
131.4

> <PUBCHEM_COORDINATE_TYPE>
2
5
10

$$$$

