17396341
  -OEChem-06241222562D

 39 40  0     0  0  0  0  0  0999 V2000
    7.9128   -2.5194    0.0000 S   0  0  0  0  0  0  0  0  0  0  0  0
    5.4641    5.3170    0.0000 F   0  0  0  0  0  0  0  0  0  0  0  0
    6.3301    3.8170    0.0000 F   0  0  0  0  0  0  0  0  0  0  0  0
    5.4641   -0.6830    0.0000 O   0  0  0  0  0  0  0  0  0  0  0  0
    2.8660    2.8170    0.0000 O   0  0  0  0  0  0  0  0  0  0  0  0
    4.5981    3.8170    0.0000 O   0  0  0  0  0  0  0  0  0  0  0  0
    3.7320   -0.6830    0.0000 O   0  0  0  0  0  0  0  0  0  0  0  0
    9.4018   -3.5945    0.0000 O   0  0  0  0  0  0  0  0  0  0  0  0
    6.4347   -3.1775    0.0000 N   0  0  0  0  0  0  0  0  0  0  0  0
    7.8195   -4.2989    0.0000 N   0  0  0  0  0  0  0  0  0  0  0  0
    4.5981    0.8170    0.0000 C   0  0  0  0  0  0  0  0  0  0  0  0
    3.7320    2.3170    0.0000 C   0  0  0  0  0  0  0  0  0  0  0  0
    3.7320    1.3170    0.0000 C   0  0  0  0  0  0  0  0  0  0  0  0
    5.4641   -1.6830    0.0000 C   0  0  0  0  0  0  0  0  0  0  0  0
    4.5981    2.8170    0.0000 C   0  0  0  0  0  0  0  0  0  0  0  0
    5.4641    1.3170    0.0000 C   0  0  0  0  0  0  0  0  0  0  0  0
    6.3301   -2.1830    0.0000 C   0  0  0  0  0  0  0  0  0  0  0  0
    5.4641    2.3170    0.0000 C   0  0  0  0  0  0  0  0  0  0  0  0
    4.5981   -0.1830    0.0000 C   0  0  0  0  0  0  0  0  0  0  0  0
    7.2437   -1.7762    0.0000 C   0  0  0  0  0  0  0  0  0  0  0  0
    7.4128   -3.3854    0.0000 C   0  0  0  0  0  0  0  0  0  0  0  0
    2.0000    2.3170    0.0000 C   0  0  0  0  0  0  0  0  0  0  0  0
    8.8141   -4.4035    0.0000 C   0  0  0  0  0  0  0  0  0  0  0  0
    5.4641    4.3170    0.0000 C   0  0  0  0  0  0  0  0  0  0  0  0
    9.2208   -5.3170    0.0000 C   0  0  0  0  0  0  0  0  0  0  0  0
    3.1951    1.0070    0.0000 H   0  0  0  0  0  0  0  0  0  0  0  0
    4.8535   -1.5753    0.0000 H   0  0  0  0  0  0  0  0  0  0  0  0
    5.2520   -2.2656    0.0000 H   0  0  0  0  0  0  0  0  0  0  0  0
    6.0010    1.0070    0.0000 H   0  0  0  0  0  0  0  0  0  0  0  0
    6.0010    2.6270    0.0000 H   0  0  0  0  0  0  0  0  0  0  0  0
    7.3726   -1.1698    0.0000 H   0  0  0  0  0  0  0  0  0  0  0  0
    7.4551   -4.8005    0.0000 H   0  0  0  0  0  0  0  0  0  0  0  0
    1.6900    2.8540    0.0000 H   0  0  0  0  0  0  0  0  0  0  0  0
    1.4631    2.0070    0.0000 H   0  0  0  0  0  0  0  0  0  0  0  0
    2.3100    1.7801    0.0000 H   0  0  0  0  0  0  0  0  0  0  0  0
    4.9272    4.6270    0.0000 H   0  0  0  0  0  0  0  0  0  0  0  0
    8.6544   -5.5692    0.0000 H   0  0  0  0  0  0  0  0  0  0  0  0
    9.4730   -5.8834    0.0000 H   0  0  0  0  0  0  0  0  0  0  0  0
    9.7872   -5.0648    0.0000 H   0  0  0  0  0  0  0  0  0  0  0  0
  1 20  1  0  0  0  0
  1 21  1  0  0  0  0
  2 24  1  0  0  0  0
  3 24  1  0  0  0  0
  4 14  1  0  0  0  0
  4 19  1  0  0  0  0
  5 12  1  0  0  0  0
  5 22  1  0  0  0  0
  6 15  1  0  0  0  0
  6 24  1  0  0  0  0
  7 19  2  0  0  0  0
  8 23  2  0  0  0  0
  9 17  1  0  0  0  0
  9 21  2  0  0  0  0
 10 21  1  0  0  0  0
 10 23  1  0  0  0  0
 10 32  1  0  0  0  0
 11 13  2  0  0  0  0
 11 16  1  0  0  0  0
 11 19  1  0  0  0  0
 12 13  1  0  0  0  0
 12 15  2  0  0  0  0
 13 26  1  0  0  0  0
 14 17  1  0  0  0  0
 14 27  1  0  0  0  0
 14 28  1  0  0  0  0
 15 18  1  0  0  0  0
 16 18  2  0  0  0  0
 16 29  1  0  0  0  0
 17 20  2  0  0  0  0
 18 30  1  0  0  0  0
 20 31  1  0  0  0  0
 22 33  1  0  0  0  0
 22 34  1  0  0  0  0
 22 35  1  0  0  0  0
 23 25  1  0  0  0  0
 24 36  1  0  0  0  0
 25 37  1  0  0  0  0
 25 38  1  0  0  0  0
 25 39  1  0  0  0  0
M  END
> <PUBCHEM_COMPOUND_CID>
17396341

> <PUBCHEM_COMPOUND_CANONICALIZED>
1

> <PUBCHEM_CACTVS_COMPLEXITY>
471

> <PUBCHEM_CACTVS_HBOND_ACCEPTOR>
9

> <PUBCHEM_CACTVS_HBOND_DONOR>
1

> <PUBCHEM_CACTVS_ROTATABLE_BOND>
8

> <PUBCHEM_CACTVS_SUBSKEYS>
AAADccBzOYBAAAAAAAAAAAAAAAAAAWAAAAAwAAAAAAAAAAABwAAAHwQQAAAADAyl3hKzn5LIFAisAyXyfAQC+KllKjkJiBUWqMiPJjKkPRqDMSIs0RMaqafK7DzOIAABAAAAQABAAAIAAACAAAAAAAAAAA==

> <PUBCHEM_IUPAC_OPENEYE_NAME>
(2-acetamidothiazol-4-yl)methyl 4-(difluoromethoxy)-3-methoxy-benzoate

> <PUBCHEM_IUPAC_CAS_NAME>
4-(difluoromethoxy)-3-methoxybenzoic acid (2-acetamido-4-thiazolyl)methyl ester

> <PUBCHEM_IUPAC_NAME>
(2-acetamido-1,3-thiazol-4-yl)methyl 4-(difluoromethoxy)-3-methoxybenzoate

> <PUBCHEM_IUPAC_SYSTEMATIC_NAME>
(2-acetamido-1,3-thiazol-4-yl)methyl 4-[bis(fluoranyl)methoxy]-3-methoxy-benzoate

> <PUBCHEM_IUPAC_TRADITIONAL_NAME>
4-(difluoromethoxy)-3-methoxy-benzoic acid (2-acetamidothiazol-4-yl)methyl ester

> <PUBCHEM_IUPAC_INCHI>
InChI=1S/C15H14F2N2O5S/c1-8(20)18-15-19-10(7-25-15)6-23-13(21)9-3-4-11(24-14(16)17)12(5-9)22-2/h3-5,7,14H,6H2,1-2H3,(H,18,19,20)

> <PUBCHEM_IUPAC_INCHIKEY>
FYNYCKHYNSTARK-UHFFFAOYSA-N

> <PUBCHEM_XLOGP3_AA>
2.7

> <PUBCHEM_EXACT_MASS>
372.059149

> <PUBCHEM_MOLECULAR_FORMULA>
C15H14F2N2O5S

> <PUBCHEM_MOLECULAR_WEIGHT>
372.343866

> <PUBCHEM_OPENEYE_CAN_SMILES>
CC(=O)NC1=NC(=CS1)COC(=O)C2=CC(=C(C=C2)OC(F)F)OC

> <PUBCHEM_OPENEYE_ISO_SMILES>
CC(=O)NC1=NC(=CS1)COC(=O)C2=CC(=C(C=C2)OC(F)F)OC

> <PUBCHEM_CACTVS_TPSA>
115

> <PUBCHEM_MONOISOTOPIC_WEIGHT>
372.059149

> <PUBCHEM_TOTAL_CHARGE>
0

> <PUBCHEM_HEAVY_ATOM_COUNT>
25

> <PUBCHEM_ATOM_DEF_STEREO_COUNT>
0

> <PUBCHEM_ATOM_UDEF_STEREO_COUNT>
0

> <PUBCHEM_BOND_DEF_STEREO_COUNT>
0

> <PUBCHEM_BOND_UDEF_STEREO_COUNT>
0

> <PUBCHEM_ISOTOPIC_ATOM_COUNT>
0

> <PUBCHEM_COMPONENT_COUNT>
1

> <PUBCHEM_CACTVS_TAUTO_COUNT>
5

> <PUBCHEM_COORDINATE_TYPE>
1
5
255

> <PUBCHEM_BONDANNOTATIONS>
1  20  8
1  21  8
11  13  8
11  16  8
12  13  8
12  15  8
15  18  8
16  18  8
17  20  8
9  17  8
9  21  8

$$$$

