9562
  -OEChem-06261203493D

 54 57  0     1  0  0  0  0  0999 V2000
    1.0824    0.0840   -1.1736 F   0  0  0  0  0  0  0  0  0  0  0  0
   -3.9920    1.5873    0.5294 O   0  0  0  0  0  0  0  0  0  0  0  0
   -0.0253   -2.0606    1.4920 O   0  0  0  0  0  0  0  0  0  0  0  0
   -4.4117   -0.4042   -2.0220 O   0  0  0  0  0  0  0  0  0  0  0  0
   -6.1581   -1.5485   -0.2293 O   0  0  0  0  0  0  0  0  0  0  0  0
    5.9184   -0.1438   -1.7841 O   0  0  0  0  0  0  0  0  0  0  0  0
   -2.0176    0.1151    0.4925 C   0  0  1  0  0  0  0  0  0  0  0  0
   -1.0349    1.3091    0.5069 C   0  0  1  0  0  0  0  0  0  0  0  0
    0.4128    0.9464    0.9204 C   0  0  1  0  0  0  0  0  0  0  0  0
    1.0066   -0.2757    0.1562 C   0  0  1  0  0  0  0  0  0  0  0  0
   -3.2164    0.7220   -0.2948 C   0  0  2  0  0  0  0  0  0  0  0  0
   -1.3857   -1.0910   -0.2567 C   0  0  0  0  0  0  0  0  0  0  0  0
   -1.2000    1.9656   -0.8786 C   0  0  0  0  0  0  0  0  0  0  0  0
    0.0296   -1.4745    0.2010 C   0  0  2  0  0  0  0  0  0  0  0  0
    2.4952   -0.5891    0.5936 C   0  0  1  0  0  0  0  0  0  0  0  0
   -2.5746    1.5468   -1.4111 C   0  0  0  0  0  0  0  0  0  0  0  0
    1.3252    2.1839    0.8091 C   0  0  0  0  0  0  0  0  0  0  0  0
   -2.4260   -0.2778    1.9268 C   0  0  0  0  0  0  0  0  0  0  0  0
    2.7549    1.8897    1.2458 C   0  0  0  0  0  0  0  0  0  0  0  0
    3.2963    0.7125    0.4762 C   0  0  0  0  0  0  0  0  0  0  0  0
   -4.1907   -0.2918   -0.8171 C   0  0  0  0  0  0  0  0  0  0  0  0
    2.6377   -1.1044    2.0443 C   0  0  0  0  0  0  0  0  0  0  0  0
    3.0818   -1.6768   -0.2963 C   0  0  0  0  0  0  0  0  0  0  0  0
    4.3907    0.8499   -0.2887 C   0  0  0  0  0  0  0  0  0  0  0  0
   -4.8774   -1.1571    0.2181 C   0  0  0  0  0  0  0  0  0  0  0  0
    4.1697   -1.5458   -1.0616 C   0  0  0  0  0  0  0  0  0  0  0  0
    4.9094   -0.2710   -1.0987 C   0  0  0  0  0  0  0  0  0  0  0  0
   -1.3994    2.0440    1.2415 H   0  0  0  0  0  0  0  0  0  0  0  0
    0.3740    0.6933    1.9867 H   0  0  0  0  0  0  0  0  0  0  0  0
   -1.3364   -0.8817   -1.3324 H   0  0  0  0  0  0  0  0  0  0  0  0
   -2.0324   -1.9694   -0.1463 H   0  0  0  0  0  0  0  0  0  0  0  0
   -0.4303    1.6622   -1.5926 H   0  0  0  0  0  0  0  0  0  0  0  0
   -1.1366    3.0564   -0.7914 H   0  0  0  0  0  0  0  0  0  0  0  0
    0.3734   -2.2548   -0.4859 H   0  0  0  0  0  0  0  0  0  0  0  0
   -3.1658    2.4318   -1.6721 H   0  0  0  0  0  0  0  0  0  0  0  0
   -2.4274    0.9718   -2.3326 H   0  0  0  0  0  0  0  0  0  0  0  0
    0.9232    2.9970    1.4259 H   0  0  0  0  0  0  0  0  0  0  0  0
    1.3440    2.5528   -0.2239 H   0  0  0  0  0  0  0  0  0  0  0  0
   -1.5736   -0.2786    2.6101 H   0  0  0  0  0  0  0  0  0  0  0  0
   -3.1374    0.4231    2.3741 H   0  0  0  0  0  0  0  0  0  0  0  0
   -2.8646   -1.2778    1.9754 H   0  0  0  0  0  0  0  0  0  0  0  0
    2.7888    1.6829    2.3214 H   0  0  0  0  0  0  0  0  0  0  0  0
    3.3658    2.7869    1.0883 H   0  0  0  0  0  0  0  0  0  0  0  0
    2.3042   -2.1420    2.1539 H   0  0  0  0  0  0  0  0  0  0  0  0
    3.6886   -1.0918    2.3638 H   0  0  0  0  0  0  0  0  0  0  0  0
    2.0818   -0.4989    2.7662 H   0  0  0  0  0  0  0  0  0  0  0  0
    2.5928   -2.6484   -0.2917 H   0  0  0  0  0  0  0  0  0  0  0  0
   -4.6344    2.0525   -0.0334 H   0  0  0  0  0  0  0  0  0  0  0  0
    0.0253   -1.3675    2.1662 H   0  0  0  0  0  0  0  0  0  0  0  0
    4.9269    1.7906   -0.3555 H   0  0  0  0  0  0  0  0  0  0  0  0
   -5.0175   -0.6244    1.1603 H   0  0  0  0  0  0  0  0  0  0  0  0
   -4.2879   -2.0604    0.3855 H   0  0  0  0  0  0  0  0  0  0  0  0
    4.5396   -2.3691   -1.6616 H   0  0  0  0  0  0  0  0  0  0  0  0
   -6.7022   -0.7454   -0.2995 H   0  0  0  0  0  0  0  0  0  0  0  0
  1 10  1  0  0  0  0
  2 11  1  0  0  0  0
  2 48  1  0  0  0  0
  3 14  1  0  0  0  0
  3 49  1  0  0  0  0
  4 21  2  0  0  0  0
  5 25  1  0  0  0  0
  5 54  1  0  0  0  0
  6 27  2  0  0  0  0
  7  8  1  0  0  0  0
  7 11  1  0  0  0  0
  7 12  1  0  0  0  0
  7 18  1  0  0  0  0
  8  9  1  0  0  0  0
  8 13  1  0  0  0  0
  8 28  1  0  0  0  0
  9 10  1  0  0  0  0
  9 17  1  0  0  0  0
  9 29  1  0  0  0  0
 10 14  1  0  0  0  0
 10 15  1  0  0  0  0
 11 16  1  0  0  0  0
 11 21  1  0  0  0  0
 12 14  1  0  0  0  0
 12 30  1  0  0  0  0
 12 31  1  0  0  0  0
 13 16  1  0  0  0  0
 13 32  1  0  0  0  0
 13 33  1  0  0  0  0
 14 34  1  0  0  0  0
 15 20  1  0  0  0  0
 15 22  1  0  0  0  0
 15 23  1  0  0  0  0
 16 35  1  0  0  0  0
 16 36  1  0  0  0  0
 17 19  1  0  0  0  0
 17 37  1  0  0  0  0
 17 38  1  0  0  0  0
 18 39  1  0  0  0  0
 18 40  1  0  0  0  0
 18 41  1  0  0  0  0
 19 20  1  0  0  0  0
 19 42  1  0  0  0  0
 19 43  1  0  0  0  0
 20 24  2  0  0  0  0
 21 25  1  0  0  0  0
 22 44  1  0  0  0  0
 22 45  1  0  0  0  0
 22 46  1  0  0  0  0
 23 26  2  0  0  0  0
 23 47  1  0  0  0  0
 24 27  1  0  0  0  0
 24 50  1  0  0  0  0
 25 51  1  0  0  0  0
 25 52  1  0  0  0  0
 26 27  1  0  0  0  0
 26 53  1  0  0  0  0
M  END
> <PUBCHEM_COMPOUND_CID>
9562

> <PUBCHEM_CONFORMER_RMSD>
0.8

> <PUBCHEM_CONFORMER_DIVERSEORDER>
2
40
50
71
81
64
32
86
15
30
7
75
53
88
13
91
31
22
42
84
70
69
65
62
58
43
29
90
36
24
49
78
12
17
52
10
87
94
55
93
48
73
11
77
26
19
80
63
51
34
39
41
79
4
25
66
46
59
60
85
3
57
74
45
8
56
44
37
92
35
38
23
33
16
47
18
82
27
68
76
5
54
67
21
83
1
14
28
61
89
72
6
20
9

> <PUBCHEM_MMFF94_PARTIAL_CHARGES>
24
1 -0.34
10 0.34
11 0.34
14 0.28
15 0.28
19 0.14
2 -0.68
20 -0.28
21 0.45
23 -0.29
24 -0.14
25 0.34
26 -0.14
27 0.54
3 -0.68
4 -0.57
47 0.15
48 0.4
49 0.4
5 -0.68
50 0.15
53 0.15
54 0.4
6 -0.57

> <PUBCHEM_EFFECTIVE_ROTOR_COUNT>
3.4

> <PUBCHEM_PHARMACOPHORE_FEATURES>
12
1 2 acceptor
1 2 donor
1 3 acceptor
1 3 donor
1 4 acceptor
1 5 acceptor
1 5 donor
1 6 acceptor
5 7 8 11 13 16 rings
6 15 20 23 24 26 27 rings
6 7 8 9 10 12 14 rings
6 9 10 15 17 19 20 rings

> <PUBCHEM_HEAVY_ATOM_COUNT>
27

> <PUBCHEM_ATOM_DEF_STEREO_COUNT>
2

> <PUBCHEM_ATOM_UDEF_STEREO_COUNT>
5

> <PUBCHEM_BOND_DEF_STEREO_COUNT>
0

> <PUBCHEM_BOND_UDEF_STEREO_COUNT>
0

> <PUBCHEM_ISOTOPIC_ATOM_COUNT>
0

> <PUBCHEM_COMPONENT_COUNT>
1

> <PUBCHEM_CACTVS_TAUTO_COUNT>
9

> <PUBCHEM_CONFORMER_ID>
0000255A00000002

> <PUBCHEM_MMFF94_ENERGY>
89.722

> <PUBCHEM_FEATURE_SELFOVERLAP>
61.096

> <PUBCHEM_SHAPE_FINGERPRINT>
10076449 9 18041827455641910222
10366900 7 18059855051831674721
10498660 4 17775006799327568828
10759866 29 17632014256011032850
10863032 1 16916780842388426594
11089746 13 14692855783103125358
11640471 11 14476957925845656384
11961588 58 17561076961226717004
12011746 2 18343581819713132044
12236239 1 14045750296471395593
12403259 226 18339934804168899089
12403259 415 18412550907485915085
12670546 177 18410292531945132446
12670546 56 13326587275499003599
13224815 77 18272938240805050369
13533116 47 17458907024563439065
13583140 156 14117508823188579053
13675066 3 8790885215774851205
13944108 23 16251109311475345437
14739800 52 15123519060281054908
14787075 74 18342172263049515506
14790565 3 17398662892761410961
15142383 8 15430027798899014395
15163728 17 16126986298797495381
15375358 24 9655575218806272965
15788980 27 4823210598134299155
15848702 151 17967248715078504525
16945 1 18186811309079423664
17349148 13 17167860854946260711
17357779 13 18412549799225895941
1813 80 16226036821772501208
18186145 218 18410581716119250176
19862831 5 18338796818593149216
200 152 17821446863212134040
20511986 3 13182466495401952697
20645477 70 18334861580562383320
20691752 17 17917712422102582593
20715895 44 9655310228178087415
20775530 9 15287027610762478820
20871999 31 18412257359287134868
21033648 29 18342745108618688577
21267235 1 18114173121003745583
21756936 100 13037459621420618830
221357 26 18334295370422608221
22182313 1 18267044824078786717
22393880 68 18340496654721287165
23227448 37 17986660490373445284
23559900 14 18187370895820380824
23569914 152 17323824608631415039
296302 2 15626500597039756056
3323516 105 18334862718464712588
34797466 226 17274809251489698638
46194498 28 18410854322526773212
465052 167 17603862273787565846
474 4 14907883961038579564
5104073 3 18114468945434356043
633830 44 18408610287665467505
7495541 125 18260830406123038046
9709674 26 18262242118454048890

> <PUBCHEM_SHAPE_MULTIPOLES>
519.03
10.73
2.08
1.63
2.21
0.35
-0.09
-2.97
4.38
-0.03
-0.25
-0.38
-0.13
0.6

> <PUBCHEM_SHAPE_SELFOVERLAP>
1132.372

> <PUBCHEM_SHAPE_VOLUME>
281.7

> <PUBCHEM_COORDINATE_TYPE>
2
5
10

$$$$

