9349
  -OEChem-06261203383D

 40 42  0     0  0  0  0  0  0999 V2000
   -4.8632   -1.5667    1.8077 F   0  0  0  0  0  0  0  0  0  0  0  0
    5.7896   -0.7956    0.4298 O   0  0  0  0  0  0  0  0  0  0  0  0
    0.2545   -0.0531   -0.0484 C   0  0  0  0  0  0  0  0  0  0  0  0
    1.7386   -0.2519    0.0805 C   0  0  0  0  0  0  0  0  0  0  0  0
   -0.3731    1.2584   -0.0073 C   0  0  0  0  0  0  0  0  0  0  0  0
   -0.4736   -1.2027   -0.1889 C   0  0  0  0  0  0  0  0  0  0  0  0
   -1.9370   -1.2794   -0.3140 C   0  0  0  0  0  0  0  0  0  0  0  0
    2.2636   -0.4311    1.3344 C   0  0  0  0  0  0  0  0  0  0  0  0
    2.4953   -0.2447   -1.0632 C   0  0  0  0  0  0  0  0  0  0  0  0
   -0.5574    1.9806   -1.1865 C   0  0  0  0  0  0  0  0  0  0  0  0
   -0.7907    1.7942    1.2110 C   0  0  0  0  0  0  0  0  0  0  0  0
    3.6412   -0.6158    1.4530 C   0  0  0  0  0  0  0  0  0  0  0  0
    3.8727   -0.4294   -0.9447 C   0  0  0  0  0  0  0  0  0  0  0  0
    4.4458   -0.6151    0.3135 C   0  0  0  0  0  0  0  0  0  0  0  0
   -2.7137   -1.3881    0.8298 C   0  0  0  0  0  0  0  0  0  0  0  0
   -2.5159   -1.2417   -1.5737 C   0  0  0  0  0  0  0  0  0  0  0  0
   -1.1590    3.2385   -1.1473 C   0  0  0  0  0  0  0  0  0  0  0  0
   -1.3924    3.0521    1.2502 C   0  0  0  0  0  0  0  0  0  0  0  0
   -1.5765    3.7741    0.0709 C   0  0  0  0  0  0  0  0  0  0  0  0
   -4.1017   -1.4608    0.7111 C   0  0  0  0  0  0  0  0  0  0  0  0
   -3.9037   -1.3143   -1.6925 C   0  0  0  0  0  0  0  0  0  0  0  0
   -4.6967   -1.4237   -0.5501 C   0  0  0  0  0  0  0  0  0  0  0  0
    6.5533   -0.7839   -0.7754 C   0  0  0  0  0  0  0  0  0  0  0  0
    0.0226   -2.1718   -0.2111 H   0  0  0  0  0  0  0  0  0  0  0  0
    1.6446   -0.4336    2.2264 H   0  0  0  0  0  0  0  0  0  0  0  0
    2.0559   -0.1015   -2.0459 H   0  0  0  0  0  0  0  0  0  0  0  0
   -0.2389    1.5774   -2.1448 H   0  0  0  0  0  0  0  0  0  0  0  0
   -0.6554    1.2447    2.1396 H   0  0  0  0  0  0  0  0  0  0  0  0
    4.0818   -0.7600    2.4357 H   0  0  0  0  0  0  0  0  0  0  0  0
    4.4383   -0.4178   -1.8701 H   0  0  0  0  0  0  0  0  0  0  0  0
   -2.2626   -1.4186    1.8181 H   0  0  0  0  0  0  0  0  0  0  0  0
   -1.9091   -1.1567   -2.4714 H   0  0  0  0  0  0  0  0  0  0  0  0
   -1.3029    3.8005   -2.0654 H   0  0  0  0  0  0  0  0  0  0  0  0
   -1.7179    3.4691    2.1986 H   0  0  0  0  0  0  0  0  0  0  0  0
   -2.0453    4.7533    0.1014 H   0  0  0  0  0  0  0  0  0  0  0  0
   -4.3671   -1.2853   -2.6743 H   0  0  0  0  0  0  0  0  0  0  0  0
   -5.7773   -1.4801   -0.6422 H   0  0  0  0  0  0  0  0  0  0  0  0
    6.4989    0.1885   -1.2767 H   0  0  0  0  0  0  0  0  0  0  0  0
    6.2715   -1.6090   -1.4383 H   0  0  0  0  0  0  0  0  0  0  0  0
    7.6002   -0.9415   -0.4962 H   0  0  0  0  0  0  0  0  0  0  0  0
  1 20  1  0  0  0  0
  2 14  1  0  0  0  0
  2 23  1  0  0  0  0
  3  4  1  0  0  0  0
  3  5  1  0  0  0  0
  3  6  2  0  0  0  0
  4  8  2  0  0  0  0
  4  9  1  0  0  0  0
  5 10  2  0  0  0  0
  5 11  1  0  0  0  0
  6  7  1  0  0  0  0
  6 24  1  0  0  0  0
  7 15  2  0  0  0  0
  7 16  1  0  0  0  0
  8 12  1  0  0  0  0
  8 25  1  0  0  0  0
  9 13  2  0  0  0  0
  9 26  1  0  0  0  0
 10 17  1  0  0  0  0
 10 27  1  0  0  0  0
 11 18  2  0  0  0  0
 11 28  1  0  0  0  0
 12 14  2  0  0  0  0
 12 29  1  0  0  0  0
 13 14  1  0  0  0  0
 13 30  1  0  0  0  0
 15 20  1  0  0  0  0
 15 31  1  0  0  0  0
 16 21  2  0  0  0  0
 16 32  1  0  0  0  0
 17 19  2  0  0  0  0
 17 33  1  0  0  0  0
 18 19  1  0  0  0  0
 18 34  1  0  0  0  0
 19 35  1  0  0  0  0
 20 22  2  0  0  0  0
 21 22  1  0  0  0  0
 21 36  1  0  0  0  0
 22 37  1  0  0  0  0
 23 38  1  0  0  0  0
 23 39  1  0  0  0  0
 23 40  1  0  0  0  0
M  END
> <PUBCHEM_COMPOUND_CID>
9349

> <PUBCHEM_CONFORMER_RMSD>
0.6

> <PUBCHEM_CONFORMER_DIVERSEORDER>
1
5
2
6
3
4

> <PUBCHEM_MMFF94_PARTIAL_CHARGES>
37
1 -0.19
10 -0.15
11 -0.15
12 -0.15
13 -0.15
14 0.08
15 -0.15
16 -0.15
17 -0.15
18 -0.15
19 -0.15
2 -0.36
20 0.19
21 -0.15
22 -0.15
23 0.28
24 0.15
25 0.15
26 0.15
27 0.15
28 0.15
29 0.15
3 -0.06
30 0.15
31 0.15
32 0.15
33 0.15
34 0.15
35 0.15
36 0.15
37 0.15
4 0.03
5 0.03
6 -0.18
7 0.03
8 -0.15
9 -0.15

> <PUBCHEM_EFFECTIVE_ROTOR_COUNT>
4

> <PUBCHEM_PHARMACOPHORE_FEATURES>
4
1 2 acceptor
6 4 8 9 12 13 14 rings
6 5 10 11 17 18 19 rings
6 7 15 16 20 21 22 rings

> <PUBCHEM_HEAVY_ATOM_COUNT>
23

> <PUBCHEM_ATOM_DEF_STEREO_COUNT>
0

> <PUBCHEM_ATOM_UDEF_STEREO_COUNT>
0

> <PUBCHEM_BOND_DEF_STEREO_COUNT>
0

> <PUBCHEM_BOND_UDEF_STEREO_COUNT>
1

> <PUBCHEM_ISOTOPIC_ATOM_COUNT>
0

> <PUBCHEM_COMPONENT_COUNT>
1

> <PUBCHEM_CACTVS_TAUTO_COUNT>
1

> <PUBCHEM_CONFORMER_ID>
0000248500000001

> <PUBCHEM_MMFF94_ENERGY>
86.9178

> <PUBCHEM_FEATURE_SELFOVERLAP>
20.297

> <PUBCHEM_SHAPE_FINGERPRINT>
104564 63 18410296955967077805
10764073 3 15432531442947528525
11045515 52 17418095399171347420
11101153 10 18341604873044877172
11265709 11 18412540985763048309
11582403 64 14974918130914734349
12553582 1 18411987922745591538
12633257 1 16733259075636787146
12714826 92 18334301993309476168
12788726 201 18270971231519519322
13009979 54 17750793238834840291
13134695 92 18192156997354240493
13140716 1 18193276291501460170
133893 2 17690581692653041005
13583140 156 5400796180792681423
13681431 1 18122069702077567029
14347332 77 18335988674749929934
14955137 171 18264762160899170443
15131766 46 15576712400305800448
15849732 13 17967249776811392887
16752209 62 18269291173594544290
17357779 13 18188791486492286445
1813 80 18334568002114280799
18222031 100 18263092032579647775
200 152 17418094312877008106
20600515 1 18188759540203824103
21041028 32 18339354172436454825
21236236 1 18337390543247428636
21304303 282 17624171529411531349
21424621 283 11743573127211992758
21641784 216 18271231786148595780
22182313 1 17751388182089327304
23175994 123 18271529702349512751
23402539 116 18408887334420340758
23419403 2 17388006147139480225
23557571 272 18260830432088033716
23558518 356 17986104338847163178
23559900 14 18059579023548468364
283562 15 18411705421345387786
3027735 51 18338801237824807979
312423 11 18272640265128556132
314173 85 18261393321247449810
4409770 3 18337965596534878005
469060 322 18270948129027571249
5171179 24 17896621517303037681
68521 5 18411144653282624157
6992083 37 17750236911636548143
7164475 11 18340771541465988206
7237137 82 18409166636618327420
81228 2 18410572933143166929

> <PUBCHEM_SHAPE_MULTIPOLES>
460.19
10.6
3.25
1.57
12.99
4.62
0.07
-8.47
-0.17
-4.1
-0.07
-0.69
-0.08
0

> <PUBCHEM_SHAPE_SELFOVERLAP>
1008.13

> <PUBCHEM_SHAPE_VOLUME>
251.1

> <PUBCHEM_COORDINATE_TYPE>
2
5
10

$$$$

