12172
  -OEChem-06261206373D

 14 14  0     0  0  0  0  0  0999 V2000
   -3.9857   -0.0005    0.0006 N   0  0  0  0  0  0  0  0  0  0  0  0
    3.9858   -0.0004    0.0007 N   0  0  0  0  0  0  0  0  0  0  0  0
   -1.3949    0.0001   -0.0003 C   0  0  0  0  0  0  0  0  0  0  0  0
    1.3949    0.0004   -0.0003 C   0  0  0  0  0  0  0  0  0  0  0  0
   -0.6977    1.2081   -0.0002 C   0  0  0  0  0  0  0  0  0  0  0  0
    0.6971    1.2083   -0.0003 C   0  0  0  0  0  0  0  0  0  0  0  0
   -0.6973   -1.2079   -0.0003 C   0  0  0  0  0  0  0  0  0  0  0  0
    0.6976   -1.2078   -0.0003 C   0  0  0  0  0  0  0  0  0  0  0  0
   -2.8237   -0.0002    0.0002 C   0  0  0  0  0  0  0  0  0  0  0  0
    2.8238   -0.0001    0.0002 C   0  0  0  0  0  0  0  0  0  0  0  0
   -1.2274    2.1578   -0.0002 H   0  0  0  0  0  0  0  0  0  0  0  0
    1.2266    2.1581   -0.0003 H   0  0  0  0  0  0  0  0  0  0  0  0
   -1.2268   -2.1577   -0.0001 H   0  0  0  0  0  0  0  0  0  0  0  0
    1.2274   -2.1575   -0.0001 H   0  0  0  0  0  0  0  0  0  0  0  0
  1  9  3  0  0  0  0
  2 10  3  0  0  0  0
  3  5  2  0  0  0  0
  3  7  1  0  0  0  0
  3  9  1  0  0  0  0
  4  6  2  0  0  0  0
  4  8  1  0  0  0  0
  4 10  1  0  0  0  0
  5  6  1  0  0  0  0
  5 11  1  0  0  0  0
  6 12  1  0  0  0  0
  7  8  2  0  0  0  0
  7 13  1  0  0  0  0
  8 14  1  0  0  0  0
M  END
> <PUBCHEM_COMPOUND_CID>
12172

> <PUBCHEM_CONFORMER_RMSD>
0.4

> <PUBCHEM_CONFORMER_DIVERSEORDER>
1

> <PUBCHEM_MMFF94_PARTIAL_CHARGES>
14
1 -0.56
10 0.48
11 0.15
12 0.15
13 0.15
14 0.15
2 -0.56
3 0.07
4 0.07
5 -0.15
6 -0.15
7 -0.15
8 -0.15
9 0.48

> <PUBCHEM_EFFECTIVE_ROTOR_COUNT>
0

> <PUBCHEM_PHARMACOPHORE_FEATURES>
3
1 1 acceptor
1 2 acceptor
6 3 4 5 6 7 8 rings

> <PUBCHEM_HEAVY_ATOM_COUNT>
10

> <PUBCHEM_ATOM_DEF_STEREO_COUNT>
0

> <PUBCHEM_ATOM_UDEF_STEREO_COUNT>
0

> <PUBCHEM_BOND_DEF_STEREO_COUNT>
0

> <PUBCHEM_BOND_UDEF_STEREO_COUNT>
0

> <PUBCHEM_ISOTOPIC_ATOM_COUNT>
0

> <PUBCHEM_COMPONENT_COUNT>
1

> <PUBCHEM_CACTVS_TAUTO_COUNT>
1

> <PUBCHEM_CONFORMER_ID>
00002F8C00000001

> <PUBCHEM_MMFF94_ENERGY>
15.7845

> <PUBCHEM_FEATURE_SELFOVERLAP>
15.223

> <PUBCHEM_SHAPE_FINGERPRINT>
10219947 1 18410853265410423045
11062470 55 18410573985162091589
11401426 45 18335991912595582085
12032990 46 18410847767842000995
14325111 11 18410575127639171104
14993402 34 18410575071778177199
15310529 11 16558482957911251610
16945 1 18410575084663078918
193761 8 17689999359032170876
20201158 50 18341893004508207035
21040471 1 18194402191112305957
21293036 1 18412262830774796204
23235685 24 18410579482709616006
23402539 116 18187375336668605668
23402655 69 18193575565334290525
23552423 10 18056762018591241532
2748010 2 18122626046049124398
528886 8 18409172099289051195

> <PUBCHEM_SHAPE_MULTIPOLES>
195.83
5.42
1.21
0.6
0
0
0
0
0
0
0
0
0
0

> <PUBCHEM_SHAPE_SELFOVERLAP>
411.368

> <PUBCHEM_SHAPE_VOLUME>
106.5

> <PUBCHEM_COORDINATE_TYPE>
2
5
10

$$$$

