10993
  -OEChem-06261205123D

 19 18  0     0  0  0  0  0  0999 V2000
    2.0095    1.3760    0.2571 O   0  0  0  0  0  0  0  0  0  0  0  0
    1.4865   -0.9716    0.1315 C   0  0  0  0  0  0  0  0  0  0  0  0
   -2.3724   -0.3557   -0.0288 C   0  0  0  0  0  0  0  0  0  0  0  0
    0.0855   -0.7279   -0.3545 C   0  0  0  0  0  0  0  0  0  0  0  0
   -0.9730   -0.5902    0.4576 C   0  0  0  0  0  0  0  0  0  0  0  0
    2.4350    0.1398   -0.3019 C   0  0  0  0  0  0  0  0  0  0  0  0
   -2.6711    1.1296   -0.1611 C   0  0  0  0  0  0  0  0  0  0  0  0
    1.8379   -1.9292   -0.2682 H   0  0  0  0  0  0  0  0  0  0  0  0
    1.4978   -1.0485    1.2256 H   0  0  0  0  0  0  0  0  0  0  0  0
   -2.5262   -0.8448   -0.9981 H   0  0  0  0  0  0  0  0  0  0  0  0
   -3.0769   -0.8196    0.6707 H   0  0  0  0  0  0  0  0  0  0  0  0
   -0.0596   -0.6814   -1.4311 H   0  0  0  0  0  0  0  0  0  0  0  0
   -0.8316   -0.6309    1.5347 H   0  0  0  0  0  0  0  0  0  0  0  0
    3.4489   -0.0706    0.0529 H   0  0  0  0  0  0  0  0  0  0  0  0
    2.4579    0.2384   -1.3925 H   0  0  0  0  0  0  0  0  0  0  0  0
   -3.7014    1.2783   -0.5000 H   0  0  0  0  0  0  0  0  0  0  0  0
   -2.0050    1.6070   -0.8878 H   0  0  0  0  0  0  0  0  0  0  0  0
   -2.5537    1.6440    0.7987 H   0  0  0  0  0  0  0  0  0  0  0  0
    2.6407    2.0543   -0.0378 H   0  0  0  0  0  0  0  0  0  0  0  0
  1  6  1  0  0  0  0
  1 19  1  0  0  0  0
  2  4  1  0  0  0  0
  2  6  1  0  0  0  0
  2  8  1  0  0  0  0
  2  9  1  0  0  0  0
  3  5  1  0  0  0  0
  3  7  1  0  0  0  0
  3 10  1  0  0  0  0
  3 11  1  0  0  0  0
  4  5  2  0  0  0  0
  4 12  1  0  0  0  0
  5 13  1  0  0  0  0
  6 14  1  0  0  0  0
  6 15  1  0  0  0  0
  7 16  1  0  0  0  0
  7 17  1  0  0  0  0
  7 18  1  0  0  0  0
M  END
> <PUBCHEM_COMPOUND_CID>
10993

> <PUBCHEM_CONFORMER_RMSD>
0.4

> <PUBCHEM_CONFORMER_DIVERSEORDER>
1
5
10
13
8
15
17
16
6
18
12
7
14
4
3
9
11
2

> <PUBCHEM_MMFF94_PARTIAL_CHARGES>
9
1 -0.68
12 0.15
13 0.15
19 0.4
2 0.14
3 0.14
4 -0.29
5 -0.29
6 0.28

> <PUBCHEM_EFFECTIVE_ROTOR_COUNT>
3

> <PUBCHEM_PHARMACOPHORE_FEATURES>
3
1 1 acceptor
1 1 donor
1 7 hydrophobe

> <PUBCHEM_HEAVY_ATOM_COUNT>
7

> <PUBCHEM_ATOM_DEF_STEREO_COUNT>
0

> <PUBCHEM_ATOM_UDEF_STEREO_COUNT>
0

> <PUBCHEM_BOND_DEF_STEREO_COUNT>
0

> <PUBCHEM_BOND_UDEF_STEREO_COUNT>
1

> <PUBCHEM_ISOTOPIC_ATOM_COUNT>
0

> <PUBCHEM_COMPONENT_COUNT>
1

> <PUBCHEM_CACTVS_TAUTO_COUNT>
1

> <PUBCHEM_CONFORMER_ID>
00002AF100000001

> <PUBCHEM_MMFF94_ENERGY>
-0.5737

> <PUBCHEM_FEATURE_SELFOVERLAP>
15.223

> <PUBCHEM_SHAPE_FINGERPRINT>
10857977 72 17060043849002581089
12897270 3 18186521007723191455
12932764 1 18412819201023261019
14390081 3 18411139130044222241
19973954 147 18411133649629172201
20096714 4 18336263440586394650
21040471 1 18342735165969552870
29004967 10 10231757768913993718
5460574 1 8502654796562982511

> <PUBCHEM_SHAPE_MULTIPOLES>
138.19
4.29
1.28
0.68
0.76
0.33
0.01
1.36
0.19
-0.13
-0.06
0
-0.03
0.14

> <PUBCHEM_SHAPE_SELFOVERLAP>
242.582

> <PUBCHEM_SHAPE_VOLUME>
91

> <PUBCHEM_COORDINATE_TYPE>
2
5
10

$$$$

