586303
  -OEChem-06241222463D

 33 34  0     0  0  0  0  0  0999 V2000
    5.0612   -0.0475   -1.2763 S   0  0  0  0  0  0  0  0  0  0  0  0
   -0.1648   -0.0011   -1.6955 O   0  0  0  0  0  0  0  0  0  0  0  0
   -1.0223    0.0095    0.4945 N   0  0  0  0  0  0  0  0  0  0  0  0
   -2.4078    0.0020    0.2993 C   0  0  0  0  0  0  0  0  0  0  0  0
   -3.1039    1.2062    0.1935 C   0  0  0  0  0  0  0  0  0  0  0  0
   -3.0933   -1.2098    0.2116 C   0  0  0  0  0  0  0  0  0  0  0  0
   -4.4852    1.1988    0.0000 C   0  0  0  0  0  0  0  0  0  0  0  0
   -4.4747   -1.2171    0.0181 C   0  0  0  0  0  0  0  0  0  0  0  0
   -5.1706   -0.0128   -0.0877 C   0  0  0  0  0  0  0  0  0  0  0  0
   -2.3979    2.5204    0.2841 C   0  0  0  0  0  0  0  0  0  0  0  0
   -2.3758   -2.5162    0.3211 C   0  0  0  0  0  0  0  0  0  0  0  0
   -0.0169    0.0069   -0.4791 C   0  0  0  0  0  0  0  0  0  0  0  0
    1.3447    0.0174    0.1383 C   0  0  0  0  0  0  0  0  0  0  0  0
    2.4363    0.0034   -0.6411 C   0  0  0  0  0  0  0  0  0  0  0  0
    3.8217    0.0024   -0.1392 C   0  0  0  0  0  0  0  0  0  0  0  0
    4.2044    0.0372    1.1442 C   0  0  0  0  0  0  0  0  0  0  0  0
    5.6266    0.0229    1.2286 C   0  0  0  0  0  0  0  0  0  0  0  0
    6.2184   -0.0225   -0.0145 C   0  0  0  0  0  0  0  0  0  0  0  0
   -5.0432    2.1275   -0.0852 H   0  0  0  0  0  0  0  0  0  0  0  0
   -5.0247   -2.1518   -0.0534 H   0  0  0  0  0  0  0  0  0  0  0  0
   -0.7425    0.0143    1.4731 H   0  0  0  0  0  0  0  0  0  0  0  0
   -6.2461   -0.0187   -0.2388 H   0  0  0  0  0  0  0  0  0  0  0  0
   -1.8322    2.5907    1.2192 H   0  0  0  0  0  0  0  0  0  0  0  0
   -1.7152    2.6460   -0.5625 H   0  0  0  0  0  0  0  0  0  0  0  0
   -3.0993    3.3618    0.2686 H   0  0  0  0  0  0  0  0  0  0  0  0
   -1.6928   -2.6485   -0.5243 H   0  0  0  0  0  0  0  0  0  0  0  0
   -1.8086   -2.5676    1.2566 H   0  0  0  0  0  0  0  0  0  0  0  0
   -3.0699   -3.3638    0.3190 H   0  0  0  0  0  0  0  0  0  0  0  0
    1.4064    0.0314    1.2207 H   0  0  0  0  0  0  0  0  0  0  0  0
    2.3155   -0.0133   -1.7226 H   0  0  0  0  0  0  0  0  0  0  0  0
    3.5574    0.0721    2.0108 H   0  0  0  0  0  0  0  0  0  0  0  0
    6.1875    0.0448    2.1540 H   0  0  0  0  0  0  0  0  0  0  0  0
    7.2749   -0.0422   -0.2419 H   0  0  0  0  0  0  0  0  0  0  0  0
  1 15  1  0  0  0  0
  1 18  1  0  0  0  0
  2 12  2  0  0  0  0
  3  4  1  0  0  0  0
  3 12  1  0  0  0  0
  3 21  1  0  0  0  0
  4  5  2  0  0  0  0
  4  6  1  0  0  0  0
  5  7  1  0  0  0  0
  5 10  1  0  0  0  0
  6  8  2  0  0  0  0
  6 11  1  0  0  0  0
  7  9  2  0  0  0  0
  7 19  1  0  0  0  0
  8  9  1  0  0  0  0
  8 20  1  0  0  0  0
  9 22  1  0  0  0  0
 10 23  1  0  0  0  0
 10 24  1  0  0  0  0
 10 25  1  0  0  0  0
 11 26  1  0  0  0  0
 11 27  1  0  0  0  0
 11 28  1  0  0  0  0
 12 13  1  0  0  0  0
 13 14  2  0  0  0  0
 13 29  1  0  0  0  0
 14 15  1  0  0  0  0
 14 30  1  0  0  0  0
 15 16  2  0  0  0  0
 16 17  1  0  0  0  0
 16 31  1  0  0  0  0
 17 18  2  0  0  0  0
 17 32  1  0  0  0  0
 18 33  1  0  0  0  0
M  END
> <PUBCHEM_COMPOUND_CID>
586303

> <PUBCHEM_CONFORMER_RMSD>
0.6

> <PUBCHEM_CONFORMER_DIVERSEORDER>
1
7
4
5
2
6
3

> <PUBCHEM_MMFF94_PARTIAL_CHARGES>
27
1 -0.08
10 0.14
11 0.14
12 0.62
13 -0.14
14 -0.11
15 -0.01
16 -0.15
17 -0.15
18 -0.11
19 0.15
2 -0.57
20 0.15
21 0.37
22 0.15
29 0.15
3 -0.55
30 0.15
31 0.15
32 0.15
33 0.15
4 0.12
5 -0.14
6 -0.14
7 -0.15
8 -0.15
9 -0.15

> <PUBCHEM_EFFECTIVE_ROTOR_COUNT>
4

> <PUBCHEM_PHARMACOPHORE_FEATURES>
4
1 2 acceptor
1 3 donor
5 1 15 16 17 18 rings
6 4 5 6 7 8 9 rings

> <PUBCHEM_HEAVY_ATOM_COUNT>
18

> <PUBCHEM_ATOM_DEF_STEREO_COUNT>
0

> <PUBCHEM_ATOM_UDEF_STEREO_COUNT>
0

> <PUBCHEM_BOND_DEF_STEREO_COUNT>
0

> <PUBCHEM_BOND_UDEF_STEREO_COUNT>
1

> <PUBCHEM_ISOTOPIC_ATOM_COUNT>
0

> <PUBCHEM_COMPONENT_COUNT>
1

> <PUBCHEM_CACTVS_TAUTO_COUNT>
2

> <PUBCHEM_CONFORMER_ID>
0008F23F00000001

> <PUBCHEM_MMFF94_ENERGY>
66.4685

> <PUBCHEM_FEATURE_SELFOVERLAP>
20.297

> <PUBCHEM_SHAPE_FINGERPRINT>
10 15 17822587027823653744
10912923 1 17918270948666716312
11045977 3 18260552186589184672
11315181 36 18131068212317822152
12107183 9 17623297482265616608
12236239 1 17632577149581233306
12596602 18 17561078073264758792
12616971 3 16988844964998443518
13167823 11 18131633374638486522
13288520 33 18411698764778769735
13403585 85 18408609145183262896
13533116 47 18189055455103664218
13583140 156 17894634746998817302
13675066 3 17894631440169158172
13760787 5 16271924905013053302
1420 363 17603581928698340494
14341114 176 18410290281524908304
14573314 32 18261386784686884390
14844126 61 18269274556625241123
17834072 33 18131348583936356788
17844677 252 18334288761016786920
1813 80 16558462089003212814
18927931 339 18409162187079616519
19433438 28 18041000644119548824
19489759 90 18335421278877064025
200 152 16200157594781976092
20645477 56 18410007775766472545
20645477 70 16370998663997988998
21033648 29 17023198157625243032
21267235 1 18341604881391614123
220451 1 17775564243576047706
2297311 6 18334002896008311205
23402539 116 18408890629255985629
23557571 272 18114449149972799372
23559900 14 18337394842019484512
300161 21 17703793600545138310
34797466 226 18187351096379875188
351380 180 18259706696180199840
351380 3 16989130855227810946
3545911 37 18335417993147948222
4214541 1 18411981364430373912
5104073 3 18269828731680310777
542803 24 17704351069956772614
559249 180 18131074848184920891
573450 72 18273500065398009978
90127 26 17458338659183563576

> <PUBCHEM_SHAPE_MULTIPOLES>
363.43
14.47
1.66
1.07
14.14
0
0.15
0.05
-1.19
-3.01
-0.23
1.34
0
0.06

> <PUBCHEM_SHAPE_SELFOVERLAP>
758.765

> <PUBCHEM_SHAPE_VOLUME>
207.6

> <PUBCHEM_COORDINATE_TYPE>
2
5
10

$$$$

