17396489
  -OEChem-06241222573D

 65 68  0     0  0  0  0  0  0999 V2000
    3.9580   -0.3410   -1.6423 S   0  0  0  0  0  0  0  0  0  0  0  0
    3.4817   -3.5196    1.5068 O   0  0  0  0  0  0  0  0  0  0  0  0
    3.2804   -0.6960   -2.8710 O   0  0  0  0  0  0  0  0  0  0  0  0
    5.2724    0.2648   -1.6641 O   0  0  0  0  0  0  0  0  0  0  0  0
    4.7370    1.6797    0.4660 O   0  0  0  0  0  0  0  0  0  0  0  0
   -1.6073    3.0090    1.0423 O   0  0  0  0  0  0  0  0  0  0  0  0
    3.9909   -1.7046   -0.6075 N   0  0  0  0  0  0  0  0  0  0  0  0
   -0.7260    1.4287   -0.4635 N   0  0  0  0  0  0  0  0  0  0  0  0
    2.7359   -2.5107   -0.5662 C   0  0  0  0  0  0  0  0  0  0  0  0
    4.5120   -1.4547    0.7684 C   0  0  0  0  0  0  0  0  0  0  0  0
    3.0100   -3.8043    0.1879 C   0  0  0  0  0  0  0  0  0  0  0  0
    4.7117   -2.7927    1.4661 C   0  0  0  0  0  0  0  0  0  0  0  0
    2.8867    0.7187   -0.7224 C   0  0  0  0  0  0  0  0  0  0  0  0
   -3.7607    0.6714    0.4521 C   0  0  0  0  0  0  0  0  0  0  0  0
   -3.1270    1.8191   -0.3687 C   0  0  0  0  0  0  0  0  0  0  0  0
    1.5120    0.6601   -0.9522 C   0  0  0  0  0  0  0  0  0  0  0  0
    3.3982    1.6061    0.2246 C   0  0  0  0  0  0  0  0  0  0  0  0
    0.6492    1.4888   -0.2350 C   0  0  0  0  0  0  0  0  0  0  0  0
   -2.9560   -0.6207    0.3687 C   0  0  0  0  0  0  0  0  0  0  0  0
   -5.2342    0.4338    0.1382 C   0  0  0  0  0  0  0  0  0  0  0  0
   -1.7400    2.1723    0.1534 C   0  0  0  0  0  0  0  0  0  0  0  0
    2.5352    2.4347    0.9418 C   0  0  0  0  0  0  0  0  0  0  0  0
    1.1608    2.3761    0.7120 C   0  0  0  0  0  0  0  0  0  0  0  0
   -3.2288   -1.5487   -0.6364 C   0  0  0  0  0  0  0  0  0  0  0  0
   -6.0875   -0.0569    1.1265 C   0  0  0  0  0  0  0  0  0  0  0  0
   -1.9465   -0.8749    1.2973 C   0  0  0  0  0  0  0  0  0  0  0  0
   -5.7288    0.7077   -1.1371 C   0  0  0  0  0  0  0  0  0  0  0  0
    5.2512    2.9414    0.8874 C   0  0  0  0  0  0  0  0  0  0  0  0
   -2.4924   -2.7308   -0.7128 C   0  0  0  0  0  0  0  0  0  0  0  0
   -7.4352   -0.2741    0.8398 C   0  0  0  0  0  0  0  0  0  0  0  0
   -1.2100   -2.0570    1.2207 C   0  0  0  0  0  0  0  0  0  0  0  0
   -7.0765    0.4906   -1.4238 C   0  0  0  0  0  0  0  0  0  0  0  0
   -1.4831   -2.9850    0.2155 C   0  0  0  0  0  0  0  0  0  0  0  0
   -7.9297   -0.0003   -0.4354 C   0  0  0  0  0  0  0  0  0  0  0  0
    6.6863    3.0691    0.4229 C   0  0  0  0  0  0  0  0  0  0  0  0
    1.9537   -1.9515   -0.0436 H   0  0  0  0  0  0  0  0  0  0  0  0
    2.3978   -2.7511   -1.5783 H   0  0  0  0  0  0  0  0  0  0  0  0
    5.4697   -0.9282    0.7273 H   0  0  0  0  0  0  0  0  0  0  0  0
    3.7877   -0.8716    1.3449 H   0  0  0  0  0  0  0  0  0  0  0  0
    2.0873   -4.3856    0.2814 H   0  0  0  0  0  0  0  0  0  0  0  0
    3.7465   -4.4267   -0.3343 H   0  0  0  0  0  0  0  0  0  0  0  0
    5.4747   -3.3990    0.9633 H   0  0  0  0  0  0  0  0  0  0  0  0
    5.0394   -2.6324    2.4981 H   0  0  0  0  0  0  0  0  0  0  0  0
   -3.7340    1.0004    1.5027 H   0  0  0  0  0  0  0  0  0  0  0  0
   -3.7421    2.7259   -0.3117 H   0  0  0  0  0  0  0  0  0  0  0  0
   -3.0369    1.5583   -1.4303 H   0  0  0  0  0  0  0  0  0  0  0  0
    1.1017   -0.0308   -1.6845 H   0  0  0  0  0  0  0  0  0  0  0  0
   -1.0140    0.7623   -1.1767 H   0  0  0  0  0  0  0  0  0  0  0  0
    2.8860    3.1176    1.7100 H   0  0  0  0  0  0  0  0  0  0  0  0
    0.5560    3.0436    1.3096 H   0  0  0  0  0  0  0  0  0  0  0  0
   -3.9885   -1.3800   -1.3920 H   0  0  0  0  0  0  0  0  0  0  0  0
   -5.7148   -0.2757    2.1237 H   0  0  0  0  0  0  0  0  0  0  0  0
   -1.7248   -0.1646    2.0893 H   0  0  0  0  0  0  0  0  0  0  0  0
   -5.0961    1.0768   -1.9372 H   0  0  0  0  0  0  0  0  0  0  0  0
    5.2110    3.0004    1.9807 H   0  0  0  0  0  0  0  0  0  0  0  0
    4.6916    3.7785    0.4512 H   0  0  0  0  0  0  0  0  0  0  0  0
   -2.7004   -3.4510   -1.4989 H   0  0  0  0  0  0  0  0  0  0  0  0
   -8.0994   -0.6569    1.6091 H   0  0  0  0  0  0  0  0  0  0  0  0
   -0.4226   -2.2543    1.9423 H   0  0  0  0  0  0  0  0  0  0  0  0
   -7.4615    0.7003   -2.4175 H   0  0  0  0  0  0  0  0  0  0  0  0
   -0.9072   -3.9038    0.1543 H   0  0  0  0  0  0  0  0  0  0  0  0
   -8.9788   -0.1702   -0.6591 H   0  0  0  0  0  0  0  0  0  0  0  0
    7.1183    4.0219    0.7417 H   0  0  0  0  0  0  0  0  0  0  0  0
    6.7457    3.0015   -0.6684 H   0  0  0  0  0  0  0  0  0  0  0  0
    7.2954    2.2528    0.8251 H   0  0  0  0  0  0  0  0  0  0  0  0
  1  3  2  0  0  0  0
  1  4  2  0  0  0  0
  1  7  1  0  0  0  0
  1 13  1  0  0  0  0
  2 11  1  0  0  0  0
  2 12  1  0  0  0  0
  5 17  1  0  0  0  0
  5 28  1  0  0  0  0
  6 21  2  0  0  0  0
  7  9  1  0  0  0  0
  7 10  1  0  0  0  0
  8 18  1  0  0  0  0
  8 21  1  0  0  0  0
  8 48  1  0  0  0  0
  9 11  1  0  0  0  0
  9 36  1  0  0  0  0
  9 37  1  0  0  0  0
 10 12  1  0  0  0  0
 10 38  1  0  0  0  0
 10 39  1  0  0  0  0
 11 40  1  0  0  0  0
 11 41  1  0  0  0  0
 12 42  1  0  0  0  0
 12 43  1  0  0  0  0
 13 16  1  0  0  0  0
 13 17  2  0  0  0  0
 14 15  1  0  0  0  0
 14 19  1  0  0  0  0
 14 20  1  0  0  0  0
 14 44  1  0  0  0  0
 15 21  1  0  0  0  0
 15 45  1  0  0  0  0
 15 46  1  0  0  0  0
 16 18  2  0  0  0  0
 16 47  1  0  0  0  0
 17 22  1  0  0  0  0
 18 23  1  0  0  0  0
 19 24  2  0  0  0  0
 19 26  1  0  0  0  0
 20 25  2  0  0  0  0
 20 27  1  0  0  0  0
 22 23  2  0  0  0  0
 22 49  1  0  0  0  0
 23 50  1  0  0  0  0
 24 29  1  0  0  0  0
 24 51  1  0  0  0  0
 25 30  1  0  0  0  0
 25 52  1  0  0  0  0
 26 31  2  0  0  0  0
 26 53  1  0  0  0  0
 27 32  2  0  0  0  0
 27 54  1  0  0  0  0
 28 35  1  0  0  0  0
 28 55  1  0  0  0  0
 28 56  1  0  0  0  0
 29 33  2  0  0  0  0
 29 57  1  0  0  0  0
 30 34  2  0  0  0  0
 30 58  1  0  0  0  0
 31 33  1  0  0  0  0
 31 59  1  0  0  0  0
 32 34  1  0  0  0  0
 32 60  1  0  0  0  0
 33 61  1  0  0  0  0
 34 62  1  0  0  0  0
 35 63  1  0  0  0  0
 35 64  1  0  0  0  0
 35 65  1  0  0  0  0
M  END
> <PUBCHEM_COMPOUND_CID>
17396489

> <PUBCHEM_CONFORMER_RMSD>
1.2

> <PUBCHEM_CONFORMER_DIVERSEORDER>
1
19
5
35
21
25
42
49
9
29
41
43
26
12
20
30
13
28
37
44
34
47
48
15
23
38
32
18
24
27
33
8
46
40
11
45
22
14
17
16
31
2
36
10
6
39
7
3
4

> <PUBCHEM_MMFF94_PARTIAL_CHARGES>
48
1 1.45
10 0.36
11 0.28
12 0.28
13 -0.01
14 0.29
15 0.06
16 -0.15
17 0.08
18 0.12
19 -0.14
2 -0.56
20 -0.14
21 0.57
22 -0.15
23 -0.15
24 -0.15
25 -0.15
26 -0.15
27 -0.15
28 0.28
29 -0.15
3 -0.65
30 -0.15
31 -0.15
32 -0.15
33 -0.15
34 -0.15
4 -0.65
47 0.15
48 0.37
49 0.15
5 -0.36
50 0.15
51 0.15
52 0.15
53 0.15
54 0.15
57 0.15
58 0.15
59 0.15
6 -0.57
60 0.15
61 0.15
62 0.15
7 -0.85
8 -0.55
9 0.36

> <PUBCHEM_EFFECTIVE_ROTOR_COUNT>
11.2

> <PUBCHEM_PHARMACOPHORE_FEATURES>
10
1 2 acceptor
1 3 acceptor
1 4 acceptor
1 5 acceptor
1 6 acceptor
1 8 donor
6 13 16 17 18 22 23 rings
6 19 24 26 29 31 33 rings
6 2 7 9 10 11 12 rings
6 20 25 27 30 32 34 rings

> <PUBCHEM_HEAVY_ATOM_COUNT>
35

> <PUBCHEM_ATOM_DEF_STEREO_COUNT>
0

> <PUBCHEM_ATOM_UDEF_STEREO_COUNT>
0

> <PUBCHEM_BOND_DEF_STEREO_COUNT>
0

> <PUBCHEM_BOND_UDEF_STEREO_COUNT>
0

> <PUBCHEM_ISOTOPIC_ATOM_COUNT>
0

> <PUBCHEM_COMPONENT_COUNT>
1

> <PUBCHEM_CACTVS_TAUTO_COUNT>
2

> <PUBCHEM_CONFORMER_ID>
0109730900000001

> <PUBCHEM_MMFF94_ENERGY>
96.2135

> <PUBCHEM_FEATURE_SELFOVERLAP>
50.772

> <PUBCHEM_SHAPE_FINGERPRINT>
11135926 11 18340500962789964364
12788726 201 18261662791838067121
13533116 47 18411981398779510859
1361 2 17821443556583273359
13617811 41 18060696183039316845
14347332 77 18337956813416811193
14394314 77 18409165485746635065
14725015 67 18127980912516410219
14931854 50 18269259313558824206
15001296 14 18411142432747979083
15183329 4 18333729131146672087
16067689 302 18409446952608437327
20511986 3 17968665903988819766
21133410 32 17122200332681341446
21781051 124 17845918638769110179
22393880 68 18336254644783899942
23559900 14 18262520269195397913
27425 322 15266762322603131470
3004659 81 17988354983620451246
3383291 50 18339361967502034275
3729539 64 18340487859229567187
4073 2 18265052423046438497
4093350 32 17240758488789797044
513532 50 17967534588566294026
5265222 85 17982727476766843168
6669772 16 18411143511106309427

> <PUBCHEM_SHAPE_MULTIPOLES>
684.82
17.78
4.25
1.54
19.38
1.91
-0.56
-4.06
-0.71
-6.83
1.44
-0.92
0.4
0.35

> <PUBCHEM_SHAPE_SELFOVERLAP>
1449.962

> <PUBCHEM_SHAPE_VOLUME>
381.9

> <PUBCHEM_COORDINATE_TYPE>
2
5
10

$$$$

