14034
  -OEChem-06241222413D

 35 34  0     0  0  0  0  0  0999 V2000
    5.9265    0.9215    0.4116 Cl  0  0  0  0  0  0  0  0  0  0  0  0
   -5.2745    0.5552    0.3024 Cl  0  0  0  0  0  0  0  0  0  0  0  0
   -2.2258   -3.7973   -0.9120 Cl  0  0  0  0  0  0  0  0  0  0  0  0
    0.3148    1.0328    0.5184 P   0  0  0  0  0  0  0  0  0  0  0  0
    1.5422    0.8209   -0.5179 O   0  0  0  0  0  0  0  0  0  0  0  0
   -0.9323    1.3688   -0.4598 O   0  0  0  0  0  0  0  0  0  0  0  0
   -0.0012   -0.4540    1.0805 O   0  0  0  0  0  0  0  0  0  0  0  0
    0.5672    2.0595    1.5860 O   0  0  0  0  0  0  0  0  0  0  0  0
    2.7935    0.3971   -0.0046 C   0  0  0  0  0  0  0  0  0  0  0  0
   -2.2213    1.5075    0.1133 C   0  0  0  0  0  0  0  0  0  0  0  0
   -0.2577   -1.5166    0.1781 C   0  0  0  0  0  0  0  0  0  0  0  0
    3.7782    0.2701   -1.1607 C   0  0  0  0  0  0  0  0  0  0  0  0
   -3.2183    1.8193   -0.9963 C   0  0  0  0  0  0  0  0  0  0  0  0
   -0.5200   -2.7857    0.9798 C   0  0  0  0  0  0  0  0  0  0  0  0
    5.1615   -0.2029   -0.7345 C   0  0  0  0  0  0  0  0  0  0  0  0
   -4.6443    2.0130   -0.4982 C   0  0  0  0  0  0  0  0  0  0  0  0
   -0.7886   -4.0093    0.1139 C   0  0  0  0  0  0  0  0  0  0  0  0
    3.1296    1.1364    0.7282 H   0  0  0  0  0  0  0  0  0  0  0  0
    2.6730   -0.5659    0.5017 H   0  0  0  0  0  0  0  0  0  0  0  0
   -2.4760    0.5797    0.6325 H   0  0  0  0  0  0  0  0  0  0  0  0
   -2.1989    2.3218    0.8452 H   0  0  0  0  0  0  0  0  0  0  0  0
   -1.1199   -1.2526   -0.4395 H   0  0  0  0  0  0  0  0  0  0  0  0
    0.6080   -1.6569   -0.4766 H   0  0  0  0  0  0  0  0  0  0  0  0
    3.8529    1.2337   -1.6808 H   0  0  0  0  0  0  0  0  0  0  0  0
    3.3707   -0.4302   -1.9008 H   0  0  0  0  0  0  0  0  0  0  0  0
   -3.1868    1.0185   -1.7464 H   0  0  0  0  0  0  0  0  0  0  0  0
   -2.8946    2.7255   -1.5235 H   0  0  0  0  0  0  0  0  0  0  0  0
   -1.3622   -2.6151    1.6627 H   0  0  0  0  0  0  0  0  0  0  0  0
    0.3442   -2.9847    1.6260 H   0  0  0  0  0  0  0  0  0  0  0  0
    5.1068   -1.1835   -0.2520 H   0  0  0  0  0  0  0  0  0  0  0  0
    5.8194   -0.2856   -1.6047 H   0  0  0  0  0  0  0  0  0  0  0  0
   -4.6979    2.8366    0.2203 H   0  0  0  0  0  0  0  0  0  0  0  0
   -5.3105    2.2442   -1.3345 H   0  0  0  0  0  0  0  0  0  0  0  0
    0.0615   -4.2163   -0.5432 H   0  0  0  0  0  0  0  0  0  0  0  0
   -0.9583   -4.8890    0.7418 H   0  0  0  0  0  0  0  0  0  0  0  0
  1 15  1  0  0  0  0
  2 16  1  0  0  0  0
  3 17  1  0  0  0  0
  4  5  1  0  0  0  0
  4  6  1  0  0  0  0
  4  7  1  0  0  0  0
  4  8  2  0  0  0  0
  5  9  1  0  0  0  0
  6 10  1  0  0  0  0
  7 11  1  0  0  0  0
  9 12  1  0  0  0  0
  9 18  1  0  0  0  0
  9 19  1  0  0  0  0
 10 13  1  0  0  0  0
 10 20  1  0  0  0  0
 10 21  1  0  0  0  0
 11 14  1  0  0  0  0
 11 22  1  0  0  0  0
 11 23  1  0  0  0  0
 12 15  1  0  0  0  0
 12 24  1  0  0  0  0
 12 25  1  0  0  0  0
 13 16  1  0  0  0  0
 13 26  1  0  0  0  0
 13 27  1  0  0  0  0
 14 17  1  0  0  0  0
 14 28  1  0  0  0  0
 14 29  1  0  0  0  0
 15 30  1  0  0  0  0
 15 31  1  0  0  0  0
 16 32  1  0  0  0  0
 16 33  1  0  0  0  0
 17 34  1  0  0  0  0
 17 35  1  0  0  0  0
M  END
> <PUBCHEM_COMPOUND_CID>
14034

> <PUBCHEM_CONFORMER_RMSD>
1

> <PUBCHEM_CONFORMER_DIVERSEORDER>
2
187
37
94
296
9
49
54
168
111
186
181
246
57
136
285
243
119
74
55
283
265
56
270
279
289
213
22
158
192
177
288
125
19
234
294
188
16
52
86
18
267
202
15
97
276
300
102
159
164
281
277
88
43
132
223
226
258
263
50
191
242
225
235
140
245
293
61
39
131
219
44
180
221
232
297
71
112
236
229
224
101
124
262
150
47
123
38
11
271
130
255
51
170
70
156
60
48
248
222
10
204
166
252
36
31
182
108
215
99
253
27
290
209
152
275
92
147
302
280
208
46
266
64
301
176
250
273
95
1
53
157
21
278
160
68
274
227
211
33
91
175
103
98
30
79
149
163
200
298
7
241
286
23
247
75
87
260
161
179
89
220
143
169
45
203
201
13
155
244
197
110
291
304
121
5
205
257
185
117
77
138
261
269
76
20
240
231
129
26
217
137
25
154
151
194
58
287
254
292
206
120
141
41
17
116
6
126
128
239
207
171
127
80
105
189
249
4
165
69
90
195
82
35
199
142
172
122
109
282
272
256
299
100
139
113
12
295
238
148
65
184
153
3
251
162
24
178
212
14
268
193
93
63
145
81
237
32
134
183
40
73
210
167
228
78
114
173
84
284
216
107
29
67
214
62
196
106
66
174
59
8
115
190
72
230
83
34
233
259
135
144
85
118
198
104
218
133
146
96
303
28
42
264

> <PUBCHEM_MMFF94_PARTIAL_CHARGES>
14
1 -0.29
10 0.28
11 0.28
15 0.29
16 0.29
17 0.29
2 -0.29
3 -0.29
4 1.51
5 -0.55
6 -0.55
7 -0.55
8 -0.7
9 0.28

> <PUBCHEM_EFFECTIVE_ROTOR_COUNT>
12

> <PUBCHEM_PHARMACOPHORE_FEATURES>
1
1 8 acceptor

> <PUBCHEM_HEAVY_ATOM_COUNT>
17

> <PUBCHEM_ATOM_DEF_STEREO_COUNT>
0

> <PUBCHEM_ATOM_UDEF_STEREO_COUNT>
0

> <PUBCHEM_BOND_DEF_STEREO_COUNT>
0

> <PUBCHEM_BOND_UDEF_STEREO_COUNT>
0

> <PUBCHEM_ISOTOPIC_ATOM_COUNT>
0

> <PUBCHEM_COMPONENT_COUNT>
1

> <PUBCHEM_CACTVS_TAUTO_COUNT>
1

> <PUBCHEM_CONFORMER_ID>
000036D200000002

> <PUBCHEM_MMFF94_ENERGY>
9.6955

> <PUBCHEM_FEATURE_SELFOVERLAP>
5.074

> <PUBCHEM_SHAPE_FINGERPRINT>
11578080 2 17606119468233195024
116883 192 17977670805541636911
12715332 25 18410284792366422985
13052359 8 18413105035165021306
13533116 47 18189055473032119422
17539 30 18193842543762408447
187816 3 18261671571104940152
20197701 30 18272369831826967486
20602899 9 18334285500434690594
21344244 181 18041266777220429799
22620623 9 18263915553919729134
23402539 116 18411704300522597020
23419403 2 17169556194607792874
23558518 356 17843116996656803380
23559900 14 18333730226701007408
298252 57 18060415850196560168
3250762 1 17975137543562686336
366044 4 18272086132131232352
474229 33 18272646861892328361
5283173 99 18336832979167399576
81228 2 17838068004944139065

> <PUBCHEM_SHAPE_MULTIPOLES>
335.83
10.61
4.24
1.14
8.56
6.64
-0.07
-6.81
2.02
-4.99
0.2
0.18
-0.05
0.38

> <PUBCHEM_SHAPE_SELFOVERLAP>
579.589

> <PUBCHEM_SHAPE_VOLUME>
224.6

> <PUBCHEM_COORDINATE_TYPE>
2
5
10

$$$$

