13068
  -OEChem-06261207432D

 27 29  0     0  0  0  0  0  0999 V2000
    4.6660    0.5173    0.0000 C   0  0  0  0  0  0  0  0  0  0  0  0
    5.5321    0.0173    0.0000 C   0  0  0  0  0  0  0  0  0  0  0  0
    3.8000    0.0173    0.0000 C   0  0  0  0  0  0  0  0  0  0  0  0
    5.5321   -0.9827    0.0000 C   0  0  0  0  0  0  0  0  0  0  0  0
    3.8000   -0.9827    0.0000 C   0  0  0  0  0  0  0  0  0  0  0  0
    4.6660   -1.4827    0.0000 C   0  0  0  0  0  0  0  0  0  0  0  0
    6.4260    0.5520    0.0000 C   0  0  0  0  0  0  0  0  0  0  0  0
    2.9061    0.5520    0.0000 C   0  0  0  0  0  0  0  0  0  0  0  0
    4.6660    1.5173    0.0000 C   0  0  0  0  0  0  0  0  0  0  0  0
    6.4260   -1.5173    0.0000 C   0  0  0  0  0  0  0  0  0  0  0  0
    2.9061   -1.5173    0.0000 C   0  0  0  0  0  0  0  0  0  0  0  0
    7.3321    0.0381    0.0000 C   0  0  0  0  0  0  0  0  0  0  0  0
    2.0000    0.0381    0.0000 C   0  0  0  0  0  0  0  0  0  0  0  0
    7.3321   -1.0035    0.0000 C   0  0  0  0  0  0  0  0  0  0  0  0
    2.0000   -1.0035    0.0000 C   0  0  0  0  0  0  0  0  0  0  0  0
    4.6660   -2.1027    0.0000 H   0  0  0  0  0  0  0  0  0  0  0  0
    6.4188    1.1720    0.0000 H   0  0  0  0  0  0  0  0  0  0  0  0
    2.9132    1.1720    0.0000 H   0  0  0  0  0  0  0  0  0  0  0  0
    5.2860    1.5173    0.0000 H   0  0  0  0  0  0  0  0  0  0  0  0
    4.6660    2.1373    0.0000 H   0  0  0  0  0  0  0  0  0  0  0  0
    4.0460    1.5173    0.0000 H   0  0  0  0  0  0  0  0  0  0  0  0
    6.4188   -2.1373    0.0000 H   0  0  0  0  0  0  0  0  0  0  0  0
    2.9132   -2.1373    0.0000 H   0  0  0  0  0  0  0  0  0  0  0  0
    7.8678    0.3502    0.0000 H   0  0  0  0  0  0  0  0  0  0  0  0
    1.4643    0.3502    0.0000 H   0  0  0  0  0  0  0  0  0  0  0  0
    7.8678   -1.3156    0.0000 H   0  0  0  0  0  0  0  0  0  0  0  0
    1.4643   -1.3156    0.0000 H   0  0  0  0  0  0  0  0  0  0  0  0
  1  2  2  0  0  0  0
  1  3  1  0  0  0  0
  1  9  1  0  0  0  0
  2  4  1  0  0  0  0
  2  7  1  0  0  0  0
  3  5  1  0  0  0  0
  3  8  2  0  0  0  0
  4  6  2  0  0  0  0
  4 10  1  0  0  0  0
  5  6  1  0  0  0  0
  5 11  2  0  0  0  0
  6 16  1  0  0  0  0
  7 12  2  0  0  0  0
  7 17  1  0  0  0  0
  8 13  1  0  0  0  0
  8 18  1  0  0  0  0
  9 19  1  0  0  0  0
  9 20  1  0  0  0  0
  9 21  1  0  0  0  0
 10 14  2  0  0  0  0
 10 22  1  0  0  0  0
 11 15  1  0  0  0  0
 11 23  1  0  0  0  0
 12 14  1  0  0  0  0
 12 24  1  0  0  0  0
 13 15  2  0  0  0  0
 13 25  1  0  0  0  0
 14 26  1  0  0  0  0
 15 27  1  0  0  0  0
M  END
> <PUBCHEM_COMPOUND_CID>
13068

> <PUBCHEM_COMPOUND_CANONICALIZED>
1

> <PUBCHEM_CACTVS_COMPLEXITY>
198

> <PUBCHEM_CACTVS_HBOND_ACCEPTOR>
0

> <PUBCHEM_CACTVS_HBOND_DONOR>
0

> <PUBCHEM_CACTVS_ROTATABLE_BOND>
0

> <PUBCHEM_CACTVS_SUBSKEYS>
AAADccBwAAAAAAAAAAAAAAAAAAAAAAAAAAAwYMAAAAAAAADBVAAAGAAAAAAADACAGAAyAMAAAACAAiBCAAACAAAgAAAIiAAAAIgIICKAERCAIAAggAAIiAcAgMAOwAACAAAQAACAAAQAACAAAAAAAAAAAA==

> <PUBCHEM_IUPAC_OPENEYE_NAME>
9-methylanthracene

> <PUBCHEM_IUPAC_CAS_NAME>
9-methylanthracene

> <PUBCHEM_IUPAC_NAME>
9-methylanthracene

> <PUBCHEM_IUPAC_SYSTEMATIC_NAME>
9-methylanthracene

> <PUBCHEM_IUPAC_TRADITIONAL_NAME>
9-methylanthracene

> <PUBCHEM_IUPAC_INCHI>
InChI=1S/C15H12/c1-11-14-8-4-2-6-12(14)10-13-7-3-5-9-15(11)13/h2-10H,1H3

> <PUBCHEM_IUPAC_INCHIKEY>
CPGPAVAKSZHMBP-UHFFFAOYSA-N

> <PUBCHEM_XLOGP3>
5.1

> <PUBCHEM_EXACT_MASS>
192.0939

> <PUBCHEM_MOLECULAR_FORMULA>
C15H12

> <PUBCHEM_MOLECULAR_WEIGHT>
192.25578

> <PUBCHEM_OPENEYE_CAN_SMILES>
CC1=C2C=CC=CC2=CC3=CC=CC=C13

> <PUBCHEM_OPENEYE_ISO_SMILES>
CC1=C2C=CC=CC2=CC3=CC=CC=C13

> <PUBCHEM_CACTVS_TPSA>
0

> <PUBCHEM_MONOISOTOPIC_WEIGHT>
192.0939

> <PUBCHEM_TOTAL_CHARGE>
0

> <PUBCHEM_HEAVY_ATOM_COUNT>
15

> <PUBCHEM_ATOM_DEF_STEREO_COUNT>
0

> <PUBCHEM_ATOM_UDEF_STEREO_COUNT>
0

> <PUBCHEM_BOND_DEF_STEREO_COUNT>
0

> <PUBCHEM_BOND_UDEF_STEREO_COUNT>
0

> <PUBCHEM_ISOTOPIC_ATOM_COUNT>
0

> <PUBCHEM_COMPONENT_COUNT>
1

> <PUBCHEM_CACTVS_TAUTO_COUNT>
1

> <PUBCHEM_COORDINATE_TYPE>
1
5
255

> <PUBCHEM_BONDANNOTATIONS>
1  2  8
1  3  8
10  14  8
11  15  8
12  14  8
13  15  8
2  4  8
2  7  8
3  5  8
3  8  8
4  10  8
4  6  8
5  11  8
5  6  8
7  12  8
8  13  8

$$$$

