6150
  -OEChem-06261201082D

 89 92  0     1  0  0  0  0  0999 V2000
    0.8660    5.4798    0.0000 S   0  0  0  0  0  0  0  0  0  0  0  0
    6.5279    2.4737    0.0000 O   0  0  0  0  0  0  0  0  0  0  0  0
    6.5279    8.9612    0.0000 O   0  0  0  0  0  0  0  0  0  0  0  0
    6.1612    4.1665    0.0000 O   0  0  0  0  0  0  0  0  0  0  0  0
    6.1612   10.6540    0.0000 O   0  0  0  0  0  0  0  0  0  0  0  0
    1.7320    5.9798    0.0000 O   0  5  0  0  0  0  0  0  0  0  0  0
    0.0000    4.9798    0.0000 O   0  5  0  0  0  0  0  0  0  0  0  0
    0.3660    6.3458    0.0000 O   0  0  0  0  0  0  0  0  0  0  0  0
    1.3660    4.6138    0.0000 O   0  0  0  0  0  0  0  0  0  0  0  0
   11.6443    1.5625    0.0000 N   0  3  3  0  0  0  0  0  0  0  0  0
   11.6443    8.0500    0.0000 N   0  3  3  0  0  0  0  0  0  0  0  0
   10.5326    3.1000    0.0000 N   0  0  3  0  0  0  0  0  0  0  0  0
   10.5326    9.5875    0.0000 N   0  0  3  0  0  0  0  0  0  0  0  0
    4.8786    3.0026    0.0000 N   0  0  0  0  0  0  0  0  0  0  0  0
    4.8786    9.4900    0.0000 N   0  0  0  0  0  0  0  0  0  0  0  0
   10.0326    8.0486    0.0000 C   0  0  1  0  0  0  0  0  0  0  0  0
   10.0326    1.5611    0.0000 C   0  0  1  0  0  0  0  0  0  0  0  0
   10.8416    8.6364    0.0000 C   0  0  2  0  0  0  0  0  0  0  0  0
   10.8416    2.1489    0.0000 C   0  0  2  0  0  0  0  0  0  0  0  0
   10.3422    7.1040    0.0000 C   0  0  0  0  0  0  0  0  0  0  0  0
   10.3422    0.6165    0.0000 C   0  0  0  0  0  0  0  0  0  0  0  0
   11.3363    0.6174    0.0000 C   0  0  0  0  0  0  0  0  0  0  0  0
   11.3363    7.1049    0.0000 C   0  0  0  0  0  0  0  0  0  0  0  0
    9.2236    2.1489    0.0000 C   0  0  0  0  0  0  0  0  0  0  0  0
    9.2236    8.6364    0.0000 C   0  0  0  0  0  0  0  0  0  0  0  0
    9.5326    9.5875    0.0000 C   0  0  0  0  0  0  0  0  0  0  0  0
    9.5326    3.1000    0.0000 C   0  0  0  0  0  0  0  0  0  0  0  0
    9.2236    7.4608    0.0000 C   0  0  0  0  0  0  0  0  0  0  0  0
    9.2236    0.9733    0.0000 C   0  0  0  0  0  0  0  0  0  0  0  0
   12.5948    1.2519    0.0000 C   0  0  0  0  0  0  0  0  0  0  0  0
   12.5948    7.7394    0.0000 C   0  0  0  0  0  0  0  0  0  0  0  0
   11.1204   10.3965    0.0000 C   0  0  0  0  0  0  0  0  0  0  0  0
   11.1204    3.9090    0.0000 C   0  0  0  0  0  0  0  0  0  0  0  0
    8.2082    1.9167    0.0000 C   0  0  0  0  0  0  0  0  0  0  0  0
    8.2082    8.4042    0.0000 C   0  0  0  0  0  0  0  0  0  0  0  0
    8.8476    3.8847    0.0000 C   0  0  0  0  0  0  0  0  0  0  0  0
    8.8476   10.3722    0.0000 C   0  0  0  0  0  0  0  0  0  0  0  0
    7.5052    2.6854    0.0000 C   0  0  0  0  0  0  0  0  0  0  0  0
    7.5052    9.1728    0.0000 C   0  0  0  0  0  0  0  0  0  0  0  0
    7.8271    3.6760    0.0000 C   0  0  0  0  0  0  0  0  0  0  0  0
    7.8271   10.1635    0.0000 C   0  0  0  0  0  0  0  0  0  0  0  0
    5.8559    9.7017    0.0000 C   0  0  0  0  0  0  0  0  0  0  0  0
    5.8559    3.2142    0.0000 C   0  0  0  0  0  0  0  0  0  0  0  0
    4.2066    3.7431    0.0000 C   0  0  0  0  0  0  0  0  0  0  0  0
    4.2066   10.2306    0.0000 C   0  0  0  0  0  0  0  0  0  0  0  0
   11.5299    2.6476    0.0000 H   0  0  0  0  0  0  0  0  0  0  0  0
   11.5299    9.1351    0.0000 H   0  0  0  0  0  0  0  0  0  0  0  0
   12.0096    2.0635    0.0000 H   0  0  0  0  0  0  0  0  0  0  0  0
   12.0096    8.5510    0.0000 H   0  0  0  0  0  0  0  0  0  0  0  0
    9.7360    0.4864    0.0000 H   0  0  0  0  0  0  0  0  0  0  0  0
   10.4079    0.0000    0.0000 H   0  0  0  0  0  0  0  0  0  0  0  0
    9.7360    6.9739    0.0000 H   0  0  0  0  0  0  0  0  0  0  0  0
   10.4079    6.4875    0.0000 H   0  0  0  0  0  0  0  0  0  0  0  0
   11.2717    0.0007    0.0000 H   0  0  0  0  0  0  0  0  0  0  0  0
   11.9427    0.4883    0.0000 H   0  0  0  0  0  0  0  0  0  0  0  0
   11.2717    6.4882    0.0000 H   0  0  0  0  0  0  0  0  0  0  0  0
   11.9427    6.9758    0.0000 H   0  0  0  0  0  0  0  0  0  0  0  0
    8.8591    7.9624    0.0000 H   0  0  0  0  0  0  0  0  0  0  0  0
    8.7220    7.0964    0.0000 H   0  0  0  0  0  0  0  0  0  0  0  0
    9.5880    6.9592    0.0000 H   0  0  0  0  0  0  0  0  0  0  0  0
    8.8591    1.4749    0.0000 H   0  0  0  0  0  0  0  0  0  0  0  0
    8.7220    0.6089    0.0000 H   0  0  0  0  0  0  0  0  0  0  0  0
    9.5880    0.4718    0.0000 H   0  0  0  0  0  0  0  0  0  0  0  0
   12.4022    7.1500    0.0000 H   0  0  0  0  0  0  0  0  0  0  0  0
   13.1842    7.5467    0.0000 H   0  0  0  0  0  0  0  0  0  0  0  0
   12.7874    8.3287    0.0000 H   0  0  0  0  0  0  0  0  0  0  0  0
   12.4022    0.6625    0.0000 H   0  0  0  0  0  0  0  0  0  0  0  0
   13.1842    1.0593    0.0000 H   0  0  0  0  0  0  0  0  0  0  0  0
   12.7874    1.8412    0.0000 H   0  0  0  0  0  0  0  0  0  0  0  0
   11.6220   10.0321    0.0000 H   0  0  0  0  0  0  0  0  0  0  0  0
   11.6220    3.5446    0.0000 H   0  0  0  0  0  0  0  0  0  0  0  0
   11.4848    4.4106    0.0000 H   0  0  0  0  0  0  0  0  0  0  0  0
   10.6188    4.2734    0.0000 H   0  0  0  0  0  0  0  0  0  0  0  0
   11.4848   10.8981    0.0000 H   0  0  0  0  0  0  0  0  0  0  0  0
   10.6188   10.7609    0.0000 H   0  0  0  0  0  0  0  0  0  0  0  0
    8.0234    1.3248    0.0000 H   0  0  0  0  0  0  0  0  0  0  0  0
    8.0234    7.8123    0.0000 H   0  0  0  0  0  0  0  0  0  0  0  0
    9.0460    4.4721    0.0000 H   0  0  0  0  0  0  0  0  0  0  0  0
    9.0460   10.9596    0.0000 H   0  0  0  0  0  0  0  0  0  0  0  0
    7.4140    4.1384    0.0000 H   0  0  0  0  0  0  0  0  0  0  0  0
    7.4140   10.6258    0.0000 H   0  0  0  0  0  0  0  0  0  0  0  0
    4.6892    2.4122    0.0000 H   0  0  0  0  0  0  0  0  0  0  0  0
    4.6892    8.8996    0.0000 H   0  0  0  0  0  0  0  0  0  0  0  0
    4.6657   10.6472    0.0000 H   0  0  0  0  0  0  0  0  0  0  0  0
    3.7899   10.6897    0.0000 H   0  0  0  0  0  0  0  0  0  0  0  0
    3.7474    9.8140    0.0000 H   0  0  0  0  0  0  0  0  0  0  0  0
    4.6657    4.1598    0.0000 H   0  0  0  0  0  0  0  0  0  0  0  0
    3.7899    4.2023    0.0000 H   0  0  0  0  0  0  0  0  0  0  0  0
    3.7474    3.3265    0.0000 H   0  0  0  0  0  0  0  0  0  0  0  0
  1  6  1  0  0  0  0
  1  7  1  0  0  0  0
  1  8  2  0  0  0  0
  1  9  2  0  0  0  0
  2 38  1  0  0  0  0
  2 43  1  0  0  0  0
  3 39  1  0  0  0  0
  3 42  1  0  0  0  0
  4 43  2  0  0  0  0
  5 42  2  0  0  0  0
 10 19  1  0  0  0  0
 10 22  1  0  0  0  0
 10 30  1  0  0  0  0
 10 48  1  0  0  0  0
 11 18  1  0  0  0  0
 11 23  1  0  0  0  0
 11 31  1  0  0  0  0
 11 49  1  0  0  0  0
 12 19  1  0  0  0  0
 12 27  1  0  0  0  0
 12 33  1  0  0  0  0
 13 18  1  0  0  0  0
 13 26  1  0  0  0  0
 13 32  1  0  0  0  0
 14 43  1  0  0  0  0
 14 44  1  0  0  0  0
 14 82  1  0  0  0  0
 15 42  1  0  0  0  0
 15 45  1  0  0  0  0
 15 83  1  0  0  0  0
 16 18  1  0  0  0  0
 16 20  1  0  0  0  0
 16 25  1  0  0  0  0
 16 28  1  6  0  0  0
 17 19  1  0  0  0  0
 17 21  1  0  0  0  0
 17 24  1  0  0  0  0
 17 29  1  6  0  0  0
 18 47  1  6  0  0  0
 19 46  1  6  0  0  0
 20 23  1  0  0  0  0
 20 52  1  0  0  0  0
 20 53  1  0  0  0  0
 21 22  1  0  0  0  0
 21 50  1  0  0  0  0
 21 51  1  0  0  0  0
 22 54  1  0  0  0  0
 22 55  1  0  0  0  0
 23 56  1  0  0  0  0
 23 57  1  0  0  0  0
 24 27  2  0  0  0  0
 24 34  1  0  0  0  0
 25 26  2  0  0  0  0
 25 35  1  0  0  0  0
 26 37  1  0  0  0  0
 27 36  1  0  0  0  0
 28 58  1  0  0  0  0
 28 59  1  0  0  0  0
 28 60  1  0  0  0  0
 29 61  1  0  0  0  0
 29 62  1  0  0  0  0
 29 63  1  0  0  0  0
 30 67  1  0  0  0  0
 30 68  1  0  0  0  0
 30 69  1  0  0  0  0
 31 64  1  0  0  0  0
 31 65  1  0  0  0  0
 31 66  1  0  0  0  0
 32 70  1  0  0  0  0
 32 74  1  0  0  0  0
 32 75  1  0  0  0  0
 33 71  1  0  0  0  0
 33 72  1  0  0  0  0
 33 73  1  0  0  0  0
 34 38  2  0  0  0  0
 34 76  1  0  0  0  0
 35 39  2  0  0  0  0
 35 77  1  0  0  0  0
 36 40  2  0  0  0  0
 36 78  1  0  0  0  0
 37 41  2  0  0  0  0
 37 79  1  0  0  0  0
 38 40  1  0  0  0  0
 39 41  1  0  0  0  0
 40 80  1  0  0  0  0
 41 81  1  0  0  0  0
 44 87  1  0  0  0  0
 44 88  1  0  0  0  0
 44 89  1  0  0  0  0
 45 84  1  0  0  0  0
 45 85  1  0  0  0  0
 45 86  1  0  0  0  0
M  CHG  4   6  -1   7  -1  10   1  11   1
M  END
> <PUBCHEM_COMPOUND_CID>
6150

> <PUBCHEM_COMPOUND_CANONICALIZED>
1

> <PUBCHEM_CACTVS_COMPLEXITY>
465

> <PUBCHEM_CACTVS_HBOND_ACCEPTOR>
10

> <PUBCHEM_CACTVS_HBOND_DONOR>
4

> <PUBCHEM_CACTVS_ROTATABLE_BOND>
4

> <PUBCHEM_CACTVS_SUBSKEYS>
AAADcfB7vABAAAAAAAAAAAAAAAAAAWLFiwAwYAAAAAAWLFgBQAAAHgAQAAAADgzBmAQzzoPABACIAiRCWDCCCAAhIgAIiIAObImMJiLEsZuMMihs0hPI6Cew0PIPgEABAAACAAAAgAIAAAQAAAAAAAAAAA==

> <PUBCHEM_IUPAC_OPENEYE_NAME>
[(3aS,8bS)-3,4,8b-trimethyl-1,2,3,3a-tetrahydropyrrolo[2,3-b]indol-3-ium-7-yl] N-methylcarbamate sulfate

> <PUBCHEM_IUPAC_CAS_NAME>
N-methylcarbamic acid [(3aS,8bS)-3,4,8b-trimethyl-1,2,3,3a-tetrahydropyrrolo[2,3-b]indol-3-ium-7-yl] ester sulfate

> <PUBCHEM_IUPAC_NAME>
[(3aS,8bS)-3,4,8b-trimethyl-1,2,3,3a-tetrahydropyrrolo[2,3-b]indol-3-ium-7-yl] N-methylcarbamate sulfate

> <PUBCHEM_IUPAC_SYSTEMATIC_NAME>
[(3aS,8bS)-3,4,8b-trimethyl-1,2,3,3a-tetrahydropyrrolo[2,3-b]indol-3-ium-7-yl] N-methylcarbamate sulfate

> <PUBCHEM_IUPAC_TRADITIONAL_NAME>
N-methylcarbamic acid [(3aS,8bS)-3,4,8b-trimethyl-1,2,3,3a-tetrahydropyrrol[2,3-b]indol-3-ium-7-yl] ester sulfate

> <PUBCHEM_IUPAC_INCHI>
InChI=1S/2C15H21N3O2.H2O4S/c2*1-15-7-8-17(3)13(15)18(4)12-6-5-10(9-11(12)15)20-14(19)16-2;1-5(2,3)4/h2*5-6,9,13H,7-8H2,1-4H3,(H,16,19);(H2,1,2,3,4)/t2*13-,15+;/m11./s1

> <PUBCHEM_IUPAC_INCHIKEY>
YYBNDIVPHIWTPK-KYJQVDHRSA-N

> <PUBCHEM_EXACT_MASS>
648.294133

> <PUBCHEM_MOLECULAR_FORMULA>
C30H44N6O8S

> <PUBCHEM_MOLECULAR_WEIGHT>
648.77076

> <PUBCHEM_OPENEYE_CAN_SMILES>
CC12CC[NH+](C1N(C3=C2C=C(C=C3)OC(=O)NC)C)C.CC12CC[NH+](C1N(C3=C2C=C(C=C3)OC(=O)NC)C)C.[O-]S(=O)(=O)[O-]

> <PUBCHEM_OPENEYE_ISO_SMILES>
C[C@@]12CC[NH+]([C@@H]1N(C3=C2C=C(C=C3)OC(=O)NC)C)C.C[C@@]12CC[NH+]([C@@H]1N(C3=C2C=C(C=C3)OC(=O)NC)C)C.[O-]S(=O)(=O)[O-]

> <PUBCHEM_CACTVS_TPSA>
181

> <PUBCHEM_MONOISOTOPIC_WEIGHT>
648.294133

> <PUBCHEM_TOTAL_CHARGE>
0

> <PUBCHEM_HEAVY_ATOM_COUNT>
45

> <PUBCHEM_ATOM_DEF_STEREO_COUNT>
4

> <PUBCHEM_ATOM_UDEF_STEREO_COUNT>
0

> <PUBCHEM_BOND_DEF_STEREO_COUNT>
0

> <PUBCHEM_BOND_UDEF_STEREO_COUNT>
0

> <PUBCHEM_ISOTOPIC_ATOM_COUNT>
0

> <PUBCHEM_COMPONENT_COUNT>
3

> <PUBCHEM_CACTVS_TAUTO_COUNT>
3

> <PUBCHEM_COORDINATE_TYPE>
1
5
255

> <PUBCHEM_BONDANNOTATIONS>
16  28  6
17  29  6
18  47  6
19  46  6
24  27  8
24  34  8
25  26  8
25  35  8
26  37  8
27  36  8
34  38  8
35  39  8
36  40  8
37  41  8
38  40  8
39  41  8

$$$$

