17396272
  -OEChem-06241222552D

 43 44  0     0  0  0  0  0  0999 V2000
    3.7320    4.5600    0.0000 F   0  0  0  0  0  0  0  0  0  0  0  0
    4.7320    3.5600    0.0000 F   0  0  0  0  0  0  0  0  0  0  0  0
    2.7320    3.5600    0.0000 F   0  0  0  0  0  0  0  0  0  0  0  0
    4.5981   -0.9400    0.0000 O   0  0  0  0  0  0  0  0  0  0  0  0
    8.0622   -0.9400    0.0000 O   0  0  0  0  0  0  0  0  0  0  0  0
    8.0622   -3.9400    0.0000 N   0  0  0  0  0  0  0  0  0  0  0  0
    5.4641    0.5600    0.0000 N   0  0  0  0  0  0  0  0  0  0  0  0
    8.9282   -2.4400    0.0000 N   0  0  0  0  0  0  0  0  0  0  0  0
    6.3301   -1.9400    0.0000 C   0  0  0  0  0  0  0  0  0  0  0  0
    7.1962   -2.4400    0.0000 C   0  0  0  0  0  0  0  0  0  0  0  0
    6.3301   -0.9400    0.0000 C   0  0  0  0  0  0  0  0  0  0  0  0
    7.1962   -3.4400    0.0000 C   0  0  0  0  0  0  0  0  0  0  0  0
    5.4641   -0.4400    0.0000 C   0  0  0  0  0  0  0  0  0  0  0  0
    4.5981    1.0600    0.0000 C   0  0  0  0  0  0  0  0  0  0  0  0
    8.0622   -1.9400    0.0000 C   0  0  0  0  0  0  0  0  0  0  0  0
    3.7320    2.5600    0.0000 C   0  0  0  0  0  0  0  0  0  0  0  0
    2.8660    2.0600    0.0000 C   0  0  0  0  0  0  0  0  0  0  0  0
    4.5981    2.0600    0.0000 C   0  0  0  0  0  0  0  0  0  0  0  0
    8.9282   -3.4400    0.0000 C   0  0  0  0  0  0  0  0  0  0  0  0
    6.3301   -3.9400    0.0000 C   0  0  0  0  0  0  0  0  0  0  0  0
    3.7320    0.5600    0.0000 C   0  0  0  0  0  0  0  0  0  0  0  0
    2.8660    1.0600    0.0000 C   0  0  0  0  0  0  0  0  0  0  0  0
    3.7320    3.5600    0.0000 C   0  0  0  0  0  0  0  0  0  0  0  0
    2.0000    2.5600    0.0000 C   0  0  0  0  0  0  0  0  0  0  0  0
    9.7942   -3.9400    0.0000 C   0  0  0  0  0  0  0  0  0  0  0  0
    5.7196   -1.8323    0.0000 H   0  0  0  0  0  0  0  0  0  0  0  0
    6.1181   -2.5226    0.0000 H   0  0  0  0  0  0  0  0  0  0  0  0
    6.9407   -1.0477    0.0000 H   0  0  0  0  0  0  0  0  0  0  0  0
    6.5422   -0.3574    0.0000 H   0  0  0  0  0  0  0  0  0  0  0  0
    8.0622   -4.5600    0.0000 H   0  0  0  0  0  0  0  0  0  0  0  0
    6.0010    0.8700    0.0000 H   0  0  0  0  0  0  0  0  0  0  0  0
    5.1350    2.3700    0.0000 H   0  0  0  0  0  0  0  0  0  0  0  0
    6.0201   -3.4031    0.0000 H   0  0  0  0  0  0  0  0  0  0  0  0
    5.7932   -4.2500    0.0000 H   0  0  0  0  0  0  0  0  0  0  0  0
    6.6401   -4.4769    0.0000 H   0  0  0  0  0  0  0  0  0  0  0  0
    3.7320   -0.0600    0.0000 H   0  0  0  0  0  0  0  0  0  0  0  0
    2.3291    0.7500    0.0000 H   0  0  0  0  0  0  0  0  0  0  0  0
    2.3100    3.0969    0.0000 H   0  0  0  0  0  0  0  0  0  0  0  0
    1.4631    2.8700    0.0000 H   0  0  0  0  0  0  0  0  0  0  0  0
    1.6900    2.0231    0.0000 H   0  0  0  0  0  0  0  0  0  0  0  0
    9.4842   -4.4769    0.0000 H   0  0  0  0  0  0  0  0  0  0  0  0
   10.3312   -4.2500    0.0000 H   0  0  0  0  0  0  0  0  0  0  0  0
   10.1042   -3.4031    0.0000 H   0  0  0  0  0  0  0  0  0  0  0  0
  1 23  1  0  0  0  0
  2 23  1  0  0  0  0
  3 23  1  0  0  0  0
  4 13  2  0  0  0  0
  5 15  2  0  0  0  0
  6 12  1  0  0  0  0
  6 19  1  0  0  0  0
  6 30  1  0  0  0  0
  7 13  1  0  0  0  0
  7 14  1  0  0  0  0
  7 31  1  0  0  0  0
  8 15  1  0  0  0  0
  8 19  2  0  0  0  0
  9 10  1  0  0  0  0
  9 11  1  0  0  0  0
  9 26  1  0  0  0  0
  9 27  1  0  0  0  0
 10 12  2  0  0  0  0
 10 15  1  0  0  0  0
 11 13  1  0  0  0  0
 11 28  1  0  0  0  0
 11 29  1  0  0  0  0
 12 20  1  0  0  0  0
 14 18  2  0  0  0  0
 14 21  1  0  0  0  0
 16 17  2  0  0  0  0
 16 18  1  0  0  0  0
 16 23  1  0  0  0  0
 17 22  1  0  0  0  0
 17 24  1  0  0  0  0
 18 32  1  0  0  0  0
 19 25  1  0  0  0  0
 20 33  1  0  0  0  0
 20 34  1  0  0  0  0
 20 35  1  0  0  0  0
 21 22  2  0  0  0  0
 21 36  1  0  0  0  0
 22 37  1  0  0  0  0
 24 38  1  0  0  0  0
 24 39  1  0  0  0  0
 24 40  1  0  0  0  0
 25 41  1  0  0  0  0
 25 42  1  0  0  0  0
 25 43  1  0  0  0  0
M  END
> <PUBCHEM_COMPOUND_CID>
17396272

> <PUBCHEM_COMPOUND_CANONICALIZED>
1

> <PUBCHEM_CACTVS_COMPLEXITY>
611

> <PUBCHEM_CACTVS_HBOND_ACCEPTOR>
5

> <PUBCHEM_CACTVS_HBOND_DONOR>
2

> <PUBCHEM_CACTVS_ROTATABLE_BOND>
4

> <PUBCHEM_CACTVS_SUBSKEYS>
AAADceB7MYAAAAAAAAAAAAAAAAAAAAAAAAAwQAAAAAAAAAABAAAAHwAQAAAADAiBmBAzwILAAACoAidydACCAAEhAgAJiAEQZMgIIDLAmZGEIAhglADIyUcYg4AOiAAAQAAQAAAQAACAACAAAAAAAAAAAA==

> <PUBCHEM_IUPAC_OPENEYE_NAME>
3-(2,6-dimethyl-4-oxo-1H-pyrimidin-5-yl)-N-[4-methyl-3-(trifluoromethyl)phenyl]propanamide

> <PUBCHEM_IUPAC_CAS_NAME>
3-(2,6-dimethyl-4-oxo-1H-pyrimidin-5-yl)-N-[4-methyl-3-(trifluoromethyl)phenyl]propanamide

> <PUBCHEM_IUPAC_NAME>
3-(2,6-dimethyl-4-oxo-1H-pyrimidin-5-yl)-N-[4-methyl-3-(trifluoromethyl)phenyl]propanamide

> <PUBCHEM_IUPAC_SYSTEMATIC_NAME>
3-(2,6-dimethyl-4-oxidanylidene-1H-pyrimidin-5-yl)-N-[4-methyl-3-(trifluoromethyl)phenyl]propanamide

> <PUBCHEM_IUPAC_TRADITIONAL_NAME>
3-(4-keto-2,6-dimethyl-1H-pyrimidin-5-yl)-N-[4-methyl-3-(trifluoromethyl)phenyl]propionamide

> <PUBCHEM_IUPAC_INCHI>
InChI=1S/C17H18F3N3O2/c1-9-4-5-12(8-14(9)17(18,19)20)23-15(24)7-6-13-10(2)21-11(3)22-16(13)25/h4-5,8H,6-7H2,1-3H3,(H,23,24)(H,21,22,25)

> <PUBCHEM_IUPAC_INCHIKEY>
RNTKHMBKZSZAFM-UHFFFAOYSA-N

> <PUBCHEM_XLOGP3_AA>
2

> <PUBCHEM_EXACT_MASS>
353.135111

> <PUBCHEM_MOLECULAR_FORMULA>
C17H18F3N3O2

> <PUBCHEM_MOLECULAR_WEIGHT>
353.33893

> <PUBCHEM_OPENEYE_CAN_SMILES>
CC1=C(C=C(C=C1)NC(=O)CCC2=C(NC(=NC2=O)C)C)C(F)(F)F

> <PUBCHEM_OPENEYE_ISO_SMILES>
CC1=C(C=C(C=C1)NC(=O)CCC2=C(NC(=NC2=O)C)C)C(F)(F)F

> <PUBCHEM_CACTVS_TPSA>
70.6

> <PUBCHEM_MONOISOTOPIC_WEIGHT>
353.135111

> <PUBCHEM_TOTAL_CHARGE>
0

> <PUBCHEM_HEAVY_ATOM_COUNT>
25

> <PUBCHEM_ATOM_DEF_STEREO_COUNT>
0

> <PUBCHEM_ATOM_UDEF_STEREO_COUNT>
0

> <PUBCHEM_BOND_DEF_STEREO_COUNT>
0

> <PUBCHEM_BOND_UDEF_STEREO_COUNT>
0

> <PUBCHEM_ISOTOPIC_ATOM_COUNT>
0

> <PUBCHEM_COMPONENT_COUNT>
1

> <PUBCHEM_CACTVS_TAUTO_COUNT>
9

> <PUBCHEM_COORDINATE_TYPE>
1
5
255

> <PUBCHEM_BONDANNOTATIONS>
10  12  8
10  15  8
14  18  8
14  21  8
16  17  8
16  18  8
17  22  8
21  22  8
6  12  8
6  19  8
8  15  8
8  19  8

$$$$

