17396316
  -OEChem-06241222553D

 42 43  0     0  0  0  0  0  0999 V2000
   -1.2292   -0.4175   -0.0285 O   0  0  0  0  0  0  0  0  0  0  0  0
    0.6325    1.4618   -0.0043 O   0  0  0  0  0  0  0  0  0  0  0  0
    7.0686    0.0144    0.5776 O   0  0  0  0  0  0  0  0  0  0  0  0
   -1.9679   -2.5965   -0.0987 O   0  0  0  0  0  0  0  0  0  0  0  0
   -7.2312    0.9662    0.0544 O   0  0  0  0  0  0  0  0  0  0  0  0
    3.0553   -1.2291   -0.0228 N   0  0  0  0  0  0  0  0  0  0  0  0
   -4.9204    1.1794    0.0487 N   0  0  0  0  0  0  0  0  0  0  0  0
    3.5820    0.9278    0.0244 C   0  0  0  0  0  0  0  0  0  0  0  0
    4.7793    0.1702    0.0251 C   0  0  0  0  0  0  0  0  0  0  0  0
    2.5316    0.0371   -0.0056 C   0  0  0  0  0  0  0  0  0  0  0  0
    4.4241   -1.1603   -0.0049 C   0  0  0  0  0  0  0  0  0  0  0  0
    3.4804    2.4023    0.0517 C   0  0  0  0  0  0  0  0  0  0  0  0
    1.0867    0.3158   -0.0187 C   0  0  0  0  0  0  0  0  0  0  0  0
    5.2453   -2.3866   -0.0185 C   0  0  0  0  0  0  0  0  0  0  0  0
    6.1309    0.6536    0.0512 C   0  0  0  0  0  0  0  0  0  0  0  0
    0.1297   -0.8674   -0.0531 C   0  0  0  0  0  0  0  0  0  0  0  0
    6.4917    2.0000   -0.5756 C   0  0  0  0  0  0  0  0  0  0  0  0
   -2.2020   -1.3803   -0.0552 C   0  0  0  0  0  0  0  0  0  0  0  0
   -3.5325   -0.7988   -0.0275 C   0  0  0  0  0  0  0  0  0  0  0  0
   -4.6669   -1.6027   -0.0491 C   0  0  0  0  0  0  0  0  0  0  0  0
   -3.7116    0.5744    0.0211 C   0  0  0  0  0  0  0  0  0  0  0  0
   -5.9277   -1.0172   -0.0219 C   0  0  0  0  0  0  0  0  0  0  0  0
   -5.9997    0.3657    0.0265 C   0  0  0  0  0  0  0  0  0  0  0  0
   -7.2490    2.3878    0.1037 C   0  0  0  0  0  0  0  0  0  0  0  0
    2.5201   -2.0863   -0.0457 H   0  0  0  0  0  0  0  0  0  0  0  0
    4.2564    2.8444    0.6821 H   0  0  0  0  0  0  0  0  0  0  0  0
    2.5389    2.7518    0.4819 H   0  0  0  0  0  0  0  0  0  0  0  0
    3.5630    2.8154   -0.9582 H   0  0  0  0  0  0  0  0  0  0  0  0
    5.7289   -2.5340    0.9525 H   0  0  0  0  0  0  0  0  0  0  0  0
    4.6440   -3.2767   -0.2320 H   0  0  0  0  0  0  0  0  0  0  0  0
    6.0240   -2.3236   -0.7854 H   0  0  0  0  0  0  0  0  0  0  0  0
    0.3027   -1.4318   -0.9758 H   0  0  0  0  0  0  0  0  0  0  0  0
    0.3119   -1.4931    0.8273 H   0  0  0  0  0  0  0  0  0  0  0  0
    7.5281    1.9587   -0.9263 H   0  0  0  0  0  0  0  0  0  0  0  0
    5.8624    2.2060   -1.4446 H   0  0  0  0  0  0  0  0  0  0  0  0
    6.4063    2.7942    0.1684 H   0  0  0  0  0  0  0  0  0  0  0  0
   -4.5886   -2.6858   -0.0872 H   0  0  0  0  0  0  0  0  0  0  0  0
   -2.8840    1.2761    0.0408 H   0  0  0  0  0  0  0  0  0  0  0  0
   -6.8223   -1.6301   -0.0381 H   0  0  0  0  0  0  0  0  0  0  0  0
   -8.2941    2.7109    0.1209 H   0  0  0  0  0  0  0  0  0  0  0  0
   -6.7777    2.8178   -0.7865 H   0  0  0  0  0  0  0  0  0  0  0  0
   -6.7675    2.7554    1.0162 H   0  0  0  0  0  0  0  0  0  0  0  0
  1 16  1  0  0  0  0
  1 18  1  0  0  0  0
  2 13  2  0  0  0  0
  3 15  2  0  0  0  0
  4 18  2  0  0  0  0
  5 23  1  0  0  0  0
  5 24  1  0  0  0  0
  6 10  1  0  0  0  0
  6 11  1  0  0  0  0
  6 25  1  0  0  0  0
  7 21  1  0  0  0  0
  7 23  2  0  0  0  0
  8  9  1  0  0  0  0
  8 10  2  0  0  0  0
  8 12  1  0  0  0  0
  9 11  2  0  0  0  0
  9 15  1  0  0  0  0
 10 13  1  0  0  0  0
 11 14  1  0  0  0  0
 12 26  1  0  0  0  0
 12 27  1  0  0  0  0
 12 28  1  0  0  0  0
 13 16  1  0  0  0  0
 14 29  1  0  0  0  0
 14 30  1  0  0  0  0
 14 31  1  0  0  0  0
 15 17  1  0  0  0  0
 16 32  1  0  0  0  0
 16 33  1  0  0  0  0
 17 34  1  0  0  0  0
 17 35  1  0  0  0  0
 17 36  1  0  0  0  0
 18 19  1  0  0  0  0
 19 20  1  0  0  0  0
 19 21  2  0  0  0  0
 20 22  2  0  0  0  0
 20 37  1  0  0  0  0
 21 38  1  0  0  0  0
 22 23  1  0  0  0  0
 22 39  1  0  0  0  0
 24 40  1  0  0  0  0
 24 41  1  0  0  0  0
 24 42  1  0  0  0  0
M  END
> <PUBCHEM_COMPOUND_CID>
17396316

> <PUBCHEM_CONFORMER_RMSD>
1

> <PUBCHEM_CONFORMER_DIVERSEORDER>
1
114
150
61
80
38
116
50
104
140
87
30
41
71
9
136
94
21
86
101
127
115
123
70
43
108
4
135
67
89
77
149
121
58
18
5
112
92
155
40
145
146
57
110
37
68
100
8
15
14
156
88
2
137
125
141
10
16
132
53
124
7
122
93
111
126
106
25
151
6
143
66
27
20
139
59
63
147
12
117
62
32
29
83
95
118
153
113
78
138
3
134
56
102
44
72
133
129
48
128
49
54
152
105
96
35
51
74
82
99
52
79
84
103
85
23
130
34
47
13
39
90
119
69
131
91
60
33
73
17
24
36
11
144
22
97
109
120
26
45
107
46
81
148
55
154
98
64
31
42
19
142
76
28
65
75

> <PUBCHEM_MMFF94_PARTIAL_CHARGES>
28
1 -0.43
10 -0.24
11 -0.33
12 0.18
13 0.59
14 0.18
15 0.6
16 0.34
17 0.06
18 0.63
19 0.09
2 -0.57
20 -0.15
21 0.16
22 -0.15
23 0.39
24 0.28
25 0.27
3 -0.57
37 0.15
38 0.15
39 0.15
4 -0.57
5 -0.36
6 0.03
7 -0.62
8 -0.18
9 -0.09

> <PUBCHEM_EFFECTIVE_ROTOR_COUNT>
7

> <PUBCHEM_PHARMACOPHORE_FEATURES>
7
1 2 acceptor
1 3 acceptor
1 4 acceptor
1 6 cation
1 6 donor
5 6 8 9 10 11 rings
6 7 19 20 21 22 23 rings

> <PUBCHEM_HEAVY_ATOM_COUNT>
24

> <PUBCHEM_ATOM_DEF_STEREO_COUNT>
0

> <PUBCHEM_ATOM_UDEF_STEREO_COUNT>
0

> <PUBCHEM_BOND_DEF_STEREO_COUNT>
0

> <PUBCHEM_BOND_UDEF_STEREO_COUNT>
0

> <PUBCHEM_ISOTOPIC_ATOM_COUNT>
0

> <PUBCHEM_COMPONENT_COUNT>
1

> <PUBCHEM_CACTVS_TAUTO_COUNT>
52

> <PUBCHEM_CONFORMER_ID>
0109725C00000001

> <PUBCHEM_MMFF94_ENERGY>
57.2589

> <PUBCHEM_FEATURE_SELFOVERLAP>
35.52

> <PUBCHEM_SHAPE_FINGERPRINT>
10066227 112 18413393133239817461
10411042 1 18123470747245300074
10595046 47 18337392613073824119
10835480 77 18410296873983267816
11089746 13 17603869966295558152
11315181 36 17988362573317994167
11719270 70 17822012042533787494
12107183 9 17904196276086187434
12236239 1 18411419509857253915
12516196 113 17967533454525837336
12788726 201 17603859039782589832
13073987 5 18411980256423991115
13167372 99 18409448115525897897
13533116 47 17895194445773103122
13785724 45 17903918099972427014
14251764 18 18410857642187969031
14933364 13 18412261731490047565
15142383 8 18273500091479095500
15183329 4 18333446560293853065
15196674 1 18410292489295950989
15461852 350 17749112163112945197
1577012 14 18408605859860095047
17844677 252 18339354154981941331
20281389 69 18272652380819925709
20511986 3 18041008306156711826
20621476 66 18410008858272239417
21150785 3 6627467441487099762
21279426 13 18338517572266563735
22224240 67 15554447379884733057
23402539 116 18187651293361440191
23536379 177 18410856564161824771
23559900 14 18188215312002147585
255183 451 18117550942139204622
2838139 119 18334862745052415029
300161 21 18186804656217435698
3004659 81 18341328972740277534
335352 9 18410012139025737318
350125 39 18411419513899286461
3545911 37 18409166580561861914
4073 2 18059570235650340034
4214541 1 18410293579838043919
4340502 62 16415483740511320546
4463277 17 18411981347340032636
5104073 3 18343304738820541707
6328613 192 18410290285424424897

> <PUBCHEM_SHAPE_MULTIPOLES>
454.6
21.48
2.43
0.62
10.37
0.09
0.01
7.47
-0.4
-0.05
0.08
-0.19
0.03
-0.43

> <PUBCHEM_SHAPE_SELFOVERLAP>
965.979

> <PUBCHEM_SHAPE_VOLUME>
254.2

> <PUBCHEM_COORDINATE_TYPE>
2
5
10

$$$$

