17395702
  -OEChem-06241222512D

 35 36  0     0  0  0  0  0  0999 V2000
    2.8660   -5.1307    0.0000 Br  0  0  0  0  0  0  0  0  0  0  0  0
    4.5981    0.8693    0.0000 S   0  0  0  0  0  0  0  0  0  0  0  0
    2.8660   -1.1307    0.0000 O   0  0  0  0  0  0  0  0  0  0  0  0
    4.0981    3.4081    0.0000 N   0  0  0  0  0  0  0  0  0  0  0  0
    5.4071    2.4571    0.0000 N   0  0  0  0  0  0  0  0  0  0  0  0
    3.7891    2.4571    0.0000 N   0  0  0  0  0  0  0  0  0  0  0  0
    5.6859    4.2172    0.0000 C   0  0  0  0  0  0  0  0  0  0  0  0
    5.0981    3.4081    0.0000 C   0  0  0  0  0  0  0  0  0  0  0  0
    6.6804    4.1126    0.0000 C   0  0  0  0  0  0  0  0  0  0  0  0
    5.2791    5.1307    0.0000 C   0  0  0  0  0  0  0  0  0  0  0  0
    4.5981    1.8693    0.0000 C   0  0  0  0  0  0  0  0  0  0  0  0
    3.7320    0.3693    0.0000 C   0  0  0  0  0  0  0  0  0  0  0  0
    3.7320   -0.6307    0.0000 C   0  0  0  0  0  0  0  0  0  0  0  0
    2.8660   -2.1307    0.0000 C   0  0  0  0  0  0  0  0  0  0  0  0
    2.0000   -2.6307    0.0000 C   0  0  0  0  0  0  0  0  0  0  0  0
    3.7320   -2.6307    0.0000 C   0  0  0  0  0  0  0  0  0  0  0  0
    2.0000   -3.6307    0.0000 C   0  0  0  0  0  0  0  0  0  0  0  0
    3.7320   -3.6307    0.0000 C   0  0  0  0  0  0  0  0  0  0  0  0
    2.8660   -4.1307    0.0000 C   0  0  0  0  0  0  0  0  0  0  0  0
    6.0503    4.7188    0.0000 H   0  0  0  0  0  0  0  0  0  0  0  0
    5.8455    5.3829    0.0000 H   0  0  0  0  0  0  0  0  0  0  0  0
    5.0270    5.6971    0.0000 H   0  0  0  0  0  0  0  0  0  0  0  0
    6.6156    3.4960    0.0000 H   0  0  0  0  0  0  0  0  0  0  0  0
    7.2970    4.0478    0.0000 H   0  0  0  0  0  0  0  0  0  0  0  0
    6.7452    4.7292    0.0000 H   0  0  0  0  0  0  0  0  0  0  0  0
    4.7127    4.8785    0.0000 H   0  0  0  0  0  0  0  0  0  0  0  0
    3.7336    3.9097    0.0000 H   0  0  0  0  0  0  0  0  0  0  0  0
    3.5200    0.9519    0.0000 H   0  0  0  0  0  0  0  0  0  0  0  0
    3.1215    0.2616    0.0000 H   0  0  0  0  0  0  0  0  0  0  0  0
    3.9441   -1.2133    0.0000 H   0  0  0  0  0  0  0  0  0  0  0  0
    4.3426   -0.5230    0.0000 H   0  0  0  0  0  0  0  0  0  0  0  0
    1.4631   -2.3207    0.0000 H   0  0  0  0  0  0  0  0  0  0  0  0
    4.2690   -2.3207    0.0000 H   0  0  0  0  0  0  0  0  0  0  0  0
    1.4631   -3.9407    0.0000 H   0  0  0  0  0  0  0  0  0  0  0  0
    4.2690   -3.9407    0.0000 H   0  0  0  0  0  0  0  0  0  0  0  0
  1 19  1  0  0  0  0
  2 11  1  0  0  0  0
  2 12  1  0  0  0  0
  3 13  1  0  0  0  0
  3 14  1  0  0  0  0
  4  6  1  0  0  0  0
  4  8  1  0  0  0  0
  4 27  1  0  0  0  0
  5  8  2  0  0  0  0
  5 11  1  0  0  0  0
  6 11  2  0  0  0  0
  7  8  1  0  0  0  0
  7  9  1  0  0  0  0
  7 10  1  0  0  0  0
  7 20  1  0  0  0  0
  9 23  1  0  0  0  0
  9 24  1  0  0  0  0
  9 25  1  0  0  0  0
 10 21  1  0  0  0  0
 10 22  1  0  0  0  0
 10 26  1  0  0  0  0
 12 13  1  0  0  0  0
 12 28  1  0  0  0  0
 12 29  1  0  0  0  0
 13 30  1  0  0  0  0
 13 31  1  0  0  0  0
 14 15  2  0  0  0  0
 14 16  1  0  0  0  0
 15 17  1  0  0  0  0
 15 32  1  0  0  0  0
 16 18  2  0  0  0  0
 16 33  1  0  0  0  0
 17 19  2  0  0  0  0
 17 34  1  0  0  0  0
 18 19  1  0  0  0  0
 18 35  1  0  0  0  0
M  END
> <PUBCHEM_COMPOUND_CID>
17395702

> <PUBCHEM_COMPOUND_CANONICALIZED>
1

> <PUBCHEM_CACTVS_COMPLEXITY>
262

> <PUBCHEM_CACTVS_HBOND_ACCEPTOR>
4

> <PUBCHEM_CACTVS_HBOND_DONOR>
1

> <PUBCHEM_CACTVS_ROTATABLE_BOND>
6

> <PUBCHEM_CACTVS_SUBSKEYS>
AAADceBzIABAEAAAAAAAAAAAAAAAAWAAAAAwAAAAAAAAAAABwAAAHgRYAAABrQSl0wKzFoZrFAiiACJiJAAS2AvgILQdqAA2CKiMLiKEORqGOCCk2BMIqheAQAAAABAAAAAAAAAAIAAAAAAAAAAAAAAAAA==

> <PUBCHEM_IUPAC_OPENEYE_NAME>
3-[2-(4-bromophenoxy)ethylsulfanyl]-5-isopropyl-1H-1,2,4-triazole

> <PUBCHEM_IUPAC_CAS_NAME>
3-[2-(4-bromophenoxy)ethylthio]-5-propan-2-yl-1H-1,2,4-triazole

> <PUBCHEM_IUPAC_NAME>
3-[2-(4-bromophenoxy)ethylsulfanyl]-5-propan-2-yl-1H-1,2,4-triazole

> <PUBCHEM_IUPAC_SYSTEMATIC_NAME>
3-[2-(4-bromanylphenoxy)ethylsulfanyl]-5-propan-2-yl-1H-1,2,4-triazole

> <PUBCHEM_IUPAC_TRADITIONAL_NAME>
3-[2-(4-bromophenoxy)ethylthio]-5-isopropyl-1H-1,2,4-triazole

> <PUBCHEM_IUPAC_INCHI>
InChI=1S/C13H16BrN3OS/c1-9(2)12-15-13(17-16-12)19-8-7-18-11-5-3-10(14)4-6-11/h3-6,9H,7-8H2,1-2H3,(H,15,16,17)

> <PUBCHEM_IUPAC_INCHIKEY>
FDHQYEXOMLWQSG-UHFFFAOYSA-N

> <PUBCHEM_XLOGP3_AA>
4.4

> <PUBCHEM_EXACT_MASS>
341.019745

> <PUBCHEM_MOLECULAR_FORMULA>
C13H16BrN3OS

> <PUBCHEM_MOLECULAR_WEIGHT>
342.25464

> <PUBCHEM_OPENEYE_CAN_SMILES>
CC(C)C1=NC(=NN1)SCCOC2=CC=C(C=C2)Br

> <PUBCHEM_OPENEYE_ISO_SMILES>
CC(C)C1=NC(=NN1)SCCOC2=CC=C(C=C2)Br

> <PUBCHEM_CACTVS_TPSA>
76.1

> <PUBCHEM_MONOISOTOPIC_WEIGHT>
341.019745

> <PUBCHEM_TOTAL_CHARGE>
0

> <PUBCHEM_HEAVY_ATOM_COUNT>
19

> <PUBCHEM_ATOM_DEF_STEREO_COUNT>
0

> <PUBCHEM_ATOM_UDEF_STEREO_COUNT>
0

> <PUBCHEM_BOND_DEF_STEREO_COUNT>
0

> <PUBCHEM_BOND_UDEF_STEREO_COUNT>
0

> <PUBCHEM_ISOTOPIC_ATOM_COUNT>
0

> <PUBCHEM_COMPONENT_COUNT>
1

> <PUBCHEM_CACTVS_TAUTO_COUNT>
5

> <PUBCHEM_COORDINATE_TYPE>
1
5
255

> <PUBCHEM_BONDANNOTATIONS>
14  15  8
14  16  8
15  17  8
16  18  8
17  19  8
18  19  8
4  6  8
4  8  8
5  11  8
5  8  8
6  11  8

$$$$

