17396650
  -OEChem-06241222573D

 42 43  0     0  0  0  0  0  0999 V2000
    6.6670    1.2374   -0.7508 F   0  0  0  0  0  0  0  0  0  0  0  0
    1.6255    0.0166    1.0540 O   0  0  0  0  0  0  0  0  0  0  0  0
   -3.8067    2.4248   -0.9188 O   0  0  0  0  0  0  0  0  0  0  0  0
   -0.6941   -1.1778    0.9184 O   0  0  0  0  0  0  0  0  0  0  0  0
    2.2805   -2.5122    0.4392 O   0  0  0  0  0  0  0  0  0  0  0  0
   -1.7921    0.7203    0.0678 N   0  0  0  0  0  0  0  0  0  0  0  0
   -3.1274    0.2785   -0.0880 C   0  0  0  0  0  0  0  0  0  0  0  0
   -4.7699   -1.4827    0.1055 C   0  0  0  0  0  0  0  0  0  0  0  0
   -3.4580   -1.0327    0.2542 C   0  0  0  0  0  0  0  0  0  0  0  0
   -4.1087    1.1399   -0.5787 C   0  0  0  0  0  0  0  0  0  0  0  0
    2.8781    0.3048    0.6007 C   0  0  0  0  0  0  0  0  0  0  0  0
    3.6271   -0.6489   -0.0887 C   0  0  0  0  0  0  0  0  0  0  0  0
   -5.7514   -0.6216   -0.3858 C   0  0  0  0  0  0  0  0  0  0  0  0
   -5.4207    0.6899   -0.7276 C   0  0  0  0  0  0  0  0  0  0  0  0
    0.5566    0.8187    0.5567 C   0  0  0  0  0  0  0  0  0  0  0  0
   -0.7091   -0.0106    0.5392 C   0  0  0  0  0  0  0  0  0  0  0  0
   -5.1238   -2.8847    0.4707 C   0  0  0  0  0  0  0  0  0  0  0  0
    3.4089    1.5739    0.8334 C   0  0  0  0  0  0  0  0  0  0  0  0
    4.9069   -0.3339   -0.5453 C   0  0  0  0  0  0  0  0  0  0  0  0
    3.0917   -1.9793   -0.3424 C   0  0  0  0  0  0  0  0  0  0  0  0
    4.6889    1.8886    0.3771 C   0  0  0  0  0  0  0  0  0  0  0  0
    5.4380    0.9347   -0.3122 C   0  0  0  0  0  0  0  0  0  0  0  0
    3.5191   -2.7540   -1.5831 C   0  0  0  0  0  0  0  0  0  0  0  0
   -3.9261    3.4105    0.1045 C   0  0  0  0  0  0  0  0  0  0  0  0
   -2.7491   -1.7529    0.6374 H   0  0  0  0  0  0  0  0  0  0  0  0
   -1.6228    1.6856   -0.2062 H   0  0  0  0  0  0  0  0  0  0  0  0
   -6.7771   -0.9590   -0.5088 H   0  0  0  0  0  0  0  0  0  0  0  0
    0.4112    1.6788    1.2191 H   0  0  0  0  0  0  0  0  0  0  0  0
    0.7598    1.1633   -0.4650 H   0  0  0  0  0  0  0  0  0  0  0  0
   -6.1902    1.3548   -1.1106 H   0  0  0  0  0  0  0  0  0  0  0  0
   -4.7488   -3.5776   -0.2892 H   0  0  0  0  0  0  0  0  0  0  0  0
   -4.6912   -3.1517    1.4408 H   0  0  0  0  0  0  0  0  0  0  0  0
   -6.2076   -3.0205    0.5521 H   0  0  0  0  0  0  0  0  0  0  0  0
    2.8409    2.3247    1.3759 H   0  0  0  0  0  0  0  0  0  0  0  0
    5.5197   -1.0590   -1.0734 H   0  0  0  0  0  0  0  0  0  0  0  0
    5.1035    2.8756    0.5596 H   0  0  0  0  0  0  0  0  0  0  0  0
    2.7071   -3.4240   -1.8818 H   0  0  0  0  0  0  0  0  0  0  0  0
    3.7081   -2.0756   -2.4194 H   0  0  0  0  0  0  0  0  0  0  0  0
    4.4126   -3.3417   -1.3589 H   0  0  0  0  0  0  0  0  0  0  0  0
   -3.6112    4.3727   -0.3086 H   0  0  0  0  0  0  0  0  0  0  0  0
   -3.2830    3.1689    0.9566 H   0  0  0  0  0  0  0  0  0  0  0  0
   -4.9669    3.4949    0.4329 H   0  0  0  0  0  0  0  0  0  0  0  0
  1 22  1  0  0  0  0
  2 11  1  0  0  0  0
  2 15  1  0  0  0  0
  3 10  1  0  0  0  0
  3 24  1  0  0  0  0
  4 16  2  0  0  0  0
  5 20  2  0  0  0  0
  6  7  1  0  0  0  0
  6 16  1  0  0  0  0
  6 26  1  0  0  0  0
  7  9  1  0  0  0  0
  7 10  2  0  0  0  0
  8  9  2  0  0  0  0
  8 13  1  0  0  0  0
  8 17  1  0  0  0  0
  9 25  1  0  0  0  0
 10 14  1  0  0  0  0
 11 12  2  0  0  0  0
 11 18  1  0  0  0  0
 12 19  1  0  0  0  0
 12 20  1  0  0  0  0
 13 14  2  0  0  0  0
 13 27  1  0  0  0  0
 14 30  1  0  0  0  0
 15 16  1  0  0  0  0
 15 28  1  0  0  0  0
 15 29  1  0  0  0  0
 17 31  1  0  0  0  0
 17 32  1  0  0  0  0
 17 33  1  0  0  0  0
 18 21  2  0  0  0  0
 18 34  1  0  0  0  0
 19 22  2  0  0  0  0
 19 35  1  0  0  0  0
 20 23  1  0  0  0  0
 21 22  1  0  0  0  0
 21 36  1  0  0  0  0
 23 37  1  0  0  0  0
 23 38  1  0  0  0  0
 23 39  1  0  0  0  0
 24 40  1  0  0  0  0
 24 41  1  0  0  0  0
 24 42  1  0  0  0  0
M  END
> <PUBCHEM_COMPOUND_CID>
17396650

> <PUBCHEM_CONFORMER_RMSD>
1

> <PUBCHEM_CONFORMER_DIVERSEORDER>
1
70
119
39
58
148
29
7
111
22
99
120
104
60
134
18
28
102
106
157
82
115
41
112
121
54
125
8
137
14
123
129
25
76
44
97
139
154
101
52
46
130
31
36
138
118
73
40
92
74
33
47
34
86
64
56
96
146
150
149
3
132
105
80
124
35
145
51
163
144
61
122
81
42
38
136
116
13
2
71
131
72
66
26
93
162
113
62
100
65
19
142
151
16
48
87
78
4
159
5
59
117
37
133
77
89
158
84
12
79
69
110
107
95
153
109
155
140
68
108
55
11
75
45
91
17
63
49
27
30
94
114
160
103
23
10
161
67
85
147
88
50
21
83
152
156
43
90
24
143
127
15
98
141
57
126
32
128
53
20
9
135
6

> <PUBCHEM_MMFF94_PARTIAL_CHARGES>
31
1 -0.19
10 0.08
11 0.08
12 0.09
13 -0.15
14 -0.15
15 0.34
16 0.57
17 0.14
18 -0.15
19 -0.15
2 -0.36
20 0.42
21 -0.15
22 0.19
23 0.06
24 0.28
25 0.15
26 0.37
27 0.15
3 -0.36
30 0.15
34 0.15
35 0.15
36 0.15
4 -0.57
5 -0.57
6 -0.55
7 0.12
8 -0.14
9 -0.15

> <PUBCHEM_EFFECTIVE_ROTOR_COUNT>
7

> <PUBCHEM_PHARMACOPHORE_FEATURES>
7
1 2 acceptor
1 3 acceptor
1 4 acceptor
1 5 acceptor
1 6 donor
6 11 12 18 19 21 22 rings
6 7 8 9 10 13 14 rings

> <PUBCHEM_HEAVY_ATOM_COUNT>
24

> <PUBCHEM_ATOM_DEF_STEREO_COUNT>
0

> <PUBCHEM_ATOM_UDEF_STEREO_COUNT>
0

> <PUBCHEM_BOND_DEF_STEREO_COUNT>
0

> <PUBCHEM_BOND_UDEF_STEREO_COUNT>
0

> <PUBCHEM_ISOTOPIC_ATOM_COUNT>
0

> <PUBCHEM_COMPONENT_COUNT>
1

> <PUBCHEM_CACTVS_TAUTO_COUNT>
4

> <PUBCHEM_CONFORMER_ID>
010973AA00000001

> <PUBCHEM_MMFF94_ENERGY>
85.6137

> <PUBCHEM_FEATURE_SELFOVERLAP>
35.539

> <PUBCHEM_SHAPE_FINGERPRINT>
10595046 47 18343304768563350826
10693767 8 17604701301110047230
11719270 70 18261398867079240834
12107183 9 17764315341638118289
12730499 353 18334010550157043002
13583140 156 18113624460617527773
13668630 136 16515685520209704565
14528608 73 18412265017176971764
14573314 32 18411139155793063605
14790565 3 17617938480083688313
15183329 4 18335983146404028176
15537594 2 17313106341097017446
15961568 22 17917429796359909132
17844677 252 18410852196269800849
18608769 82 18337670789610908819
20645477 70 18187364367707487166
21033650 10 17416958620307671764
21267235 1 18199467676506761027
21315763 129 18341335517953834696
221357 26 18334019380393818105
22393880 68 18340204205961113014
2297311 6 18410856521850403177
23557571 272 18343018882782003069
23559900 14 18118973726399856466
239999 70 18334575750699863414
3004659 81 18340487876309508314
3472631 163 17060050394770260220
34797466 226 18333446543135095965
351380 3 15646770080738565493
4073 2 18343860017814763315
4214541 1 18410858802098391601
4325135 7 18201440237834624335
46194498 28 18339641140296659172
497634 4 18187078465041461761
5104073 3 18410296951302826771
5281201 14 18337109059200943404
5283173 99 18412265068453108249

> <PUBCHEM_SHAPE_MULTIPOLES>
458.18
16.06
3.12
0.98
0.49
0.15
0.11
-1.22
3.29
-1.61
0.33
0.34
0.19
1.78

> <PUBCHEM_SHAPE_SELFOVERLAP>
972.238

> <PUBCHEM_SHAPE_VOLUME>
257.3

> <PUBCHEM_COORDINATE_TYPE>
2
5
10

$$$$

