17395546
  -OEChem-06241222513D

 54 56  0     1  0  0  0  0  0999 V2000
    1.9763   -1.6253    2.6318 O   0  0  0  0  0  0  0  0  0  0  0  0
    0.0663   -2.6039   -1.0568 O   0  0  0  0  0  0  0  0  0  0  0  0
    6.7356    1.0461   -0.9918 O   0  0  0  0  0  0  0  0  0  0  0  0
   -3.6504   -0.8130   -1.6760 O   0  0  0  0  0  0  0  0  0  0  0  0
   -6.1165    2.6690    0.6022 O   0  0  0  0  0  0  0  0  0  0  0  0
    1.6003   -0.4475    0.5944 N   0  0  0  0  0  0  0  0  0  0  0  0
   -2.1718   -2.6998   -0.4363 N   0  0  0  0  0  0  0  0  0  0  0  0
   -5.0817   -0.5490    0.1362 N   0  0  0  0  0  0  0  0  0  0  0  0
   -0.6990   -0.9082    0.3989 C   0  0  2  0  0  0  0  0  0  0  0  0
    0.4187   -0.0382   -0.1425 C   0  0  0  0  0  0  0  0  0  0  0  0
   -0.2475   -1.2827    1.7994 C   0  0  0  0  0  0  0  0  0  0  0  0
    1.2604   -1.1731    1.7494 C   0  0  0  0  0  0  0  0  0  0  0  0
   -0.8921   -2.1436   -0.4304 C   0  0  0  0  0  0  0  0  0  0  0  0
    2.9146   -0.0640    0.1893 C   0  0  0  0  0  0  0  0  0  0  0  0
   -3.2787   -2.1211    0.3210 C   0  0  0  0  0  0  0  0  0  0  0  0
    3.0980    0.6577   -0.9902 C   0  0  0  0  0  0  0  0  0  0  0  0
    4.0153   -0.4120    0.9722 C   0  0  0  0  0  0  0  0  0  0  0  0
   -2.4971   -3.8986   -1.1984 C   0  0  0  0  0  0  0  0  0  0  0  0
    4.3820    1.0314   -1.3867 C   0  0  0  0  0  0  0  0  0  0  0  0
    5.2994   -0.0384    0.5758 C   0  0  0  0  0  0  0  0  0  0  0  0
   -4.0088   -1.1121   -0.5397 C   0  0  0  0  0  0  0  0  0  0  0  0
    5.4826    0.6833   -0.6038 C   0  0  0  0  0  0  0  0  0  0  0  0
   -5.9238    0.4800   -0.4304 C   0  0  0  0  0  0  0  0  0  0  0  0
   -5.3409    1.8271   -0.1298 C   0  0  0  0  0  0  0  0  0  0  0  0
    7.6944    1.2746    0.0399 C   0  0  0  0  0  0  0  0  0  0  0  0
   -4.1431    2.4252   -0.4452 C   0  0  0  0  0  0  0  0  0  0  0  0
    8.6987    2.3013   -0.4387 C   0  0  0  0  0  0  0  0  0  0  0  0
   -4.1854    3.7176    0.1301 C   0  0  0  0  0  0  0  0  0  0  0  0
   -5.4060    3.8172    0.7561 C   0  0  0  0  0  0  0  0  0  0  0  0
   -1.6055   -0.2998    0.4051 H   0  0  0  0  0  0  0  0  0  0  0  0
    0.2352    1.0187    0.0853 H   0  0  0  0  0  0  0  0  0  0  0  0
    0.5429   -0.1619   -1.2223 H   0  0  0  0  0  0  0  0  0  0  0  0
   -0.6150   -0.5613    2.5369 H   0  0  0  0  0  0  0  0  0  0  0  0
   -0.5394   -2.2936    2.0985 H   0  0  0  0  0  0  0  0  0  0  0  0
   -3.9741   -2.9220    0.5991 H   0  0  0  0  0  0  0  0  0  0  0  0
   -2.9429   -1.6533    1.2494 H   0  0  0  0  0  0  0  0  0  0  0  0
    2.2752    0.9635   -1.6275 H   0  0  0  0  0  0  0  0  0  0  0  0
    3.9481   -0.9750    1.8928 H   0  0  0  0  0  0  0  0  0  0  0  0
   -3.3147   -3.6767   -1.8900 H   0  0  0  0  0  0  0  0  0  0  0  0
   -1.6319   -4.2455   -1.7693 H   0  0  0  0  0  0  0  0  0  0  0  0
   -2.8028   -4.6868   -0.5044 H   0  0  0  0  0  0  0  0  0  0  0  0
    4.5193    1.5958   -2.3051 H   0  0  0  0  0  0  0  0  0  0  0  0
    6.1318   -0.3532    1.1983 H   0  0  0  0  0  0  0  0  0  0  0  0
   -5.2797   -0.8500    1.0863 H   0  0  0  0  0  0  0  0  0  0  0  0
   -5.9999    0.3393   -1.5135 H   0  0  0  0  0  0  0  0  0  0  0  0
   -6.9201    0.3739    0.0099 H   0  0  0  0  0  0  0  0  0  0  0  0
    8.2069    0.3340    0.2698 H   0  0  0  0  0  0  0  0  0  0  0  0
    7.2278    1.6712    0.9504 H   0  0  0  0  0  0  0  0  0  0  0  0
   -3.3369    1.9904   -1.0183 H   0  0  0  0  0  0  0  0  0  0  0  0
    9.4571    2.4935    0.3255 H   0  0  0  0  0  0  0  0  0  0  0  0
    8.1990    3.2439   -0.6858 H   0  0  0  0  0  0  0  0  0  0  0  0
    9.1968    1.9570   -1.3512 H   0  0  0  0  0  0  0  0  0  0  0  0
   -3.4217    4.4809    0.0931 H   0  0  0  0  0  0  0  0  0  0  0  0
   -5.8939    4.5960    1.3237 H   0  0  0  0  0  0  0  0  0  0  0  0
  1 12  2  0  0  0  0
  2 13  2  0  0  0  0
  3 22  1  0  0  0  0
  3 25  1  0  0  0  0
  4 21  2  0  0  0  0
  5 24  1  0  0  0  0
  5 29  1  0  0  0  0
  6 10  1  0  0  0  0
  6 12  1  0  0  0  0
  6 14  1  0  0  0  0
  7 13  1  0  0  0  0
  7 15  1  0  0  0  0
  7 18  1  0  0  0  0
  8 21  1  0  0  0  0
  8 23  1  0  0  0  0
  8 44  1  0  0  0  0
  9 10  1  0  0  0  0
  9 11  1  0  0  0  0
  9 13  1  0  0  0  0
  9 30  1  0  0  0  0
 10 31  1  0  0  0  0
 10 32  1  0  0  0  0
 11 12  1  0  0  0  0
 11 33  1  0  0  0  0
 11 34  1  0  0  0  0
 14 16  2  0  0  0  0
 14 17  1  0  0  0  0
 15 21  1  0  0  0  0
 15 35  1  0  0  0  0
 15 36  1  0  0  0  0
 16 19  1  0  0  0  0
 16 37  1  0  0  0  0
 17 20  2  0  0  0  0
 17 38  1  0  0  0  0
 18 39  1  0  0  0  0
 18 40  1  0  0  0  0
 18 41  1  0  0  0  0
 19 22  2  0  0  0  0
 19 42  1  0  0  0  0
 20 22  1  0  0  0  0
 20 43  1  0  0  0  0
 23 24  1  0  0  0  0
 23 45  1  0  0  0  0
 23 46  1  0  0  0  0
 24 26  2  0  0  0  0
 25 27  1  0  0  0  0
 25 47  1  0  0  0  0
 25 48  1  0  0  0  0
 26 28  1  0  0  0  0
 26 49  1  0  0  0  0
 27 50  1  0  0  0  0
 27 51  1  0  0  0  0
 27 52  1  0  0  0  0
 28 29  2  0  0  0  0
 28 53  1  0  0  0  0
 29 54  1  0  0  0  0
M  END
> <PUBCHEM_COMPOUND_CID>
17395546

> <PUBCHEM_CONFORMER_RMSD>
1

> <PUBCHEM_CONFORMER_DIVERSEORDER>
4
45
17
122
51
55
39
150
76
156
1
94
98
131
174
43
116
16
86
140
42
159
26
166
33
120
147
93
113
52
175
151
133
62
145
50
90
128
78
100
59
49
171
144
152
70
66
117
164
31
58
111
161
139
169
125
146
73
96
160
134
24
177
47
163
34
132
60
123
30
136
142
105
15
10
75
148
109
104
44
27
63
101
37
69
22
83
67
115
72
64
41
12
46
118
157
80
112
11
114
56
103
95
154
162
88
176
3
141
6
19
124
68
57
137
172
89
54
108
127
48
74
84
135
143
7
40
2
85
87
77
29
165
158
106
25
130
28
138
79
121
129
91
9
149
38
110
168
65
18
36
53
167
71
99
155
23
170
13
97
14
21
119
153
102
8
126
35
92
5
107
81
82
173
20
32
61

> <PUBCHEM_MMFF94_PARTIAL_CHARGES>
36
1 -0.57
10 0.3
11 0.06
12 0.57
13 0.57
14 0.12
15 0.36
16 -0.15
17 -0.15
18 0.3
19 -0.15
2 -0.57
20 -0.15
21 0.57
22 0.08
23 0.48
24 -0.04
25 0.28
26 -0.15
28 -0.15
29 -0.01
3 -0.36
37 0.15
38 0.15
4 -0.57
42 0.15
43 0.15
44 0.37
49 0.15
5 -0.28
53 0.15
54 0.15
6 -0.48
7 -0.66
8 -0.73
9 0.06

> <PUBCHEM_EFFECTIVE_ROTOR_COUNT>
10.8

> <PUBCHEM_PHARMACOPHORE_FEATURES>
9
1 1 acceptor
1 2 acceptor
1 3 acceptor
1 4 acceptor
1 5 acceptor
1 8 donor
5 5 24 26 28 29 rings
5 6 9 10 11 12 rings
6 14 16 17 19 20 22 rings

> <PUBCHEM_HEAVY_ATOM_COUNT>
29

> <PUBCHEM_ATOM_DEF_STEREO_COUNT>
0

> <PUBCHEM_ATOM_UDEF_STEREO_COUNT>
1

> <PUBCHEM_BOND_DEF_STEREO_COUNT>
0

> <PUBCHEM_BOND_UDEF_STEREO_COUNT>
0

> <PUBCHEM_ISOTOPIC_ATOM_COUNT>
0

> <PUBCHEM_COMPONENT_COUNT>
1

> <PUBCHEM_CACTVS_TAUTO_COUNT>
4

> <PUBCHEM_CONFORMER_ID>
01096F5A00000004

> <PUBCHEM_MMFF94_ENERGY>
73.8971

> <PUBCHEM_FEATURE_SELFOVERLAP>
45.669

> <PUBCHEM_SHAPE_FINGERPRINT>
10165383 225 17967805038910751339
10411042 1 17904764372081251447
105312 117 18260830397454417839
10670039 82 18408047299495158165
10906281 52 17774993554539828518
10917259 128 18335996350120466696
11135609 201 18263351629746995841
11181472 205 18272083887166512524
11408170 253 18262225656251871744
11475781 23 18187075192160461364
12107183 9 18197508530583993562
12539745 222 16343124815119275976
12596602 18 17632860863206551075
12838863 1 11455592259692978273
13690498 29 17824548465429950127
13726171 33 18265326386816867833
13757389 114 18261958440687221199
13914758 101 18409727353673693906
14251757 5 18261392222299960849
14294032 229 18187364329838836399
14347329 18 18334300906999281291
14790565 3 18410857706781276937
15163728 17 18336541741967551455
15183329 4 18334016077347436166
15198563 99 18042988484540292551
15297060 5 18114176497217630593
155225 5 18336545035717643129
15604295 49 18190745242063747776
15876981 60 18198622121346187807
16112460 7 17916859111191623180
17913733 40 16200434688686421128
19053607 189 18047484593286184521
20771845 165 18187916331066137207
21033650 10 18338520729136546562
21133410 127 17982728881527455829
21302155 148 18340205319011731409
21424621 283 18272089379611584424
21756936 100 18201716224112370651
21774942 28 18410290316428212268
21859007 373 18114474387786037400
22122407 14 17988629754026742120
23559900 14 17023464119586586962
24771750 20 17896597478714097215
2838139 119 18411697656281899744
38570 142 17988070192607137082
397830 11 10951759739033954486
4015057 19 15068625924815657714
44555599 121 18129937880912767604
445580 204 18343581824578194896
44802255 64 18113894927298101918
4516262 110 18060147556569153543
5283173 99 18261395494864963720
54039377 194 6843918408569887733
563151 74 17203321260304291857
5911458 16 18201715154628863292
636775 72 18268148670030548288
6475588 51 18412547579082355684
6608658 132 18337126605096961319
6700243 42 17610867164048545239
7808743 9 18409451423262392115

> <PUBCHEM_SHAPE_MULTIPOLES>
552.52
19.46
4.14
1.46
25.59
1.16
0.55
20.59
-3.14
-8.07
-0.34
0.64
-0.76
-2.59

> <PUBCHEM_SHAPE_SELFOVERLAP>
1168.861

> <PUBCHEM_SHAPE_VOLUME>
310.4

> <PUBCHEM_COORDINATE_TYPE>
2
5
10

$$$$

