8097
  -OEChem-06261202353D

 36 35  0     0  0  0  0  0  0999 V2000
    3.6816    0.4775   -0.3107 N   0  0  0  0  0  0  0  0  0  0  0  0
   -4.0425    0.3351   -0.4241 N   0  0  0  0  0  0  0  0  0  0  0  0
    0.8443   -0.0770    0.4267 C   0  0  0  0  0  0  0  0  0  0  0  0
   -0.4910   -0.8179    0.3261 C   0  0  0  0  0  0  0  0  0  0  0  0
    2.0292   -0.9977    0.7356 C   0  0  0  0  0  0  0  0  0  0  0  0
   -1.6337    0.1426   -0.0141 C   0  0  0  0  0  0  0  0  0  0  0  0
    3.3479   -0.2455    0.9120 C   0  0  0  0  0  0  0  0  0  0  0  0
   -2.9716   -0.5922   -0.0790 C   0  0  0  0  0  0  0  0  0  0  0  0
    3.7824   -0.4451   -1.4425 C   0  0  0  0  0  0  0  0  0  0  0  0
    4.9332    1.2180   -0.1453 C   0  0  0  0  0  0  0  0  0  0  0  0
   -4.1678    1.3798    0.5939 C   0  0  0  0  0  0  0  0  0  0  0  0
   -5.3119   -0.3776   -0.5787 C   0  0  0  0  0  0  0  0  0  0  0  0
    0.7716    0.6880    1.2100 H   0  0  0  0  0  0  0  0  0  0  0  0
    1.0179    0.4536   -0.5167 H   0  0  0  0  0  0  0  0  0  0  0  0
   -0.7005   -1.3225    1.2770 H   0  0  0  0  0  0  0  0  0  0  0  0
   -0.4214   -1.5947   -0.4450 H   0  0  0  0  0  0  0  0  0  0  0  0
    2.1013   -1.7999   -0.0068 H   0  0  0  0  0  0  0  0  0  0  0  0
    1.8185   -1.5110    1.6837 H   0  0  0  0  0  0  0  0  0  0  0  0
   -1.4276    0.6355   -0.9725 H   0  0  0  0  0  0  0  0  0  0  0  0
   -1.6385    0.9168    0.7602 H   0  0  0  0  0  0  0  0  0  0  0  0
    3.2427    0.4596    1.7460 H   0  0  0  0  0  0  0  0  0  0  0  0
    4.1371   -0.9573    1.1867 H   0  0  0  0  0  0  0  0  0  0  0  0
   -3.1715   -1.0962    0.8758 H   0  0  0  0  0  0  0  0  0  0  0  0
   -2.9000   -1.3727   -0.8472 H   0  0  0  0  0  0  0  0  0  0  0  0
    2.8063   -0.8266   -1.7564 H   0  0  0  0  0  0  0  0  0  0  0  0
    4.4508   -1.2892   -1.2363 H   0  0  0  0  0  0  0  0  0  0  0  0
    4.1740    0.0780   -2.3239 H   0  0  0  0  0  0  0  0  0  0  0  0
    5.1540    1.8075   -1.0421 H   0  0  0  0  0  0  0  0  0  0  0  0
    5.7835    0.5548    0.0507 H   0  0  0  0  0  0  0  0  0  0  0  0
    4.8522    1.9299    0.6838 H   0  0  0  0  0  0  0  0  0  0  0  0
   -3.3412    2.0953    0.5507 H   0  0  0  0  0  0  0  0  0  0  0  0
   -4.2413    0.9710    1.6083 H   0  0  0  0  0  0  0  0  0  0  0  0
   -5.0676    1.9809    0.4135 H   0  0  0  0  0  0  0  0  0  0  0  0
   -5.6267   -0.8674    0.3500 H   0  0  0  0  0  0  0  0  0  0  0  0
   -5.2327   -1.1401   -1.3616 H   0  0  0  0  0  0  0  0  0  0  0  0
   -6.1050    0.3102   -0.8930 H   0  0  0  0  0  0  0  0  0  0  0  0
  1  7  1  0  0  0  0
  1  9  1  0  0  0  0
  1 10  1  0  0  0  0
  2  8  1  0  0  0  0
  2 11  1  0  0  0  0
  2 12  1  0  0  0  0
  3  4  1  0  0  0  0
  3  5  1  0  0  0  0
  3 13  1  0  0  0  0
  3 14  1  0  0  0  0
  4  6  1  0  0  0  0
  4 15  1  0  0  0  0
  4 16  1  0  0  0  0
  5  7  1  0  0  0  0
  5 17  1  0  0  0  0
  5 18  1  0  0  0  0
  6  8  1  0  0  0  0
  6 19  1  0  0  0  0
  6 20  1  0  0  0  0
  7 21  1  0  0  0  0
  7 22  1  0  0  0  0
  8 23  1  0  0  0  0
  8 24  1  0  0  0  0
  9 25  1  0  0  0  0
  9 26  1  0  0  0  0
  9 27  1  0  0  0  0
 10 28  1  0  0  0  0
 10 29  1  0  0  0  0
 10 30  1  0  0  0  0
 11 31  1  0  0  0  0
 11 32  1  0  0  0  0
 11 33  1  0  0  0  0
 12 34  1  0  0  0  0
 12 35  1  0  0  0  0
 12 36  1  0  0  0  0
M  END
> <PUBCHEM_COMPOUND_CID>
8097

> <PUBCHEM_CONFORMER_RMSD>
0.8

> <PUBCHEM_CONFORMER_DIVERSEORDER>
1
19
2
14
51
109
41
112
23
38
92
3
15
69
58
110
68
39
75
108
4
107
84
63
61
88
101
93
16
43
10
64
34
57
104
53
113
40
83
18
29
56
11
111
47
8
74
66
97
87
90
17
31
106
65
13
72
98
71
6
20
28
91
100
24
22
49
79
76
32
105
46
70
48
44
27
102
59
62
80
85
5
26
37
89
55
78
42
95
52
45
96
86
103
67
94
73
77
99
36
35
33
60
82
12
30
81
9
50
54
21
7
25

> <PUBCHEM_MMFF94_PARTIAL_CHARGES>
8
1 -0.81
10 0.27
11 0.27
12 0.27
2 -0.81
7 0.27
8 0.27
9 0.27

> <PUBCHEM_EFFECTIVE_ROTOR_COUNT>
7

> <PUBCHEM_PHARMACOPHORE_FEATURES>
3
1 1 cation
1 2 cation
4 3 4 5 6 hydrophobe

> <PUBCHEM_HEAVY_ATOM_COUNT>
12

> <PUBCHEM_ATOM_DEF_STEREO_COUNT>
0

> <PUBCHEM_ATOM_UDEF_STEREO_COUNT>
0

> <PUBCHEM_BOND_DEF_STEREO_COUNT>
0

> <PUBCHEM_BOND_UDEF_STEREO_COUNT>
0

> <PUBCHEM_ISOTOPIC_ATOM_COUNT>
0

> <PUBCHEM_COMPONENT_COUNT>
1

> <PUBCHEM_CACTVS_TAUTO_COUNT>
1

> <PUBCHEM_CONFORMER_ID>
00001FA100000001

> <PUBCHEM_MMFF94_ENERGY>
17.2765

> <PUBCHEM_FEATURE_SELFOVERLAP>
15.223

> <PUBCHEM_SHAPE_FINGERPRINT>
10680689 15 17458347425306857523
10912923 1 18341900714137956099
114248 4 17749108872292302407
12616999 72 17313101964889254966
13237642 15 15554157121415207985
13690532 89 6699808687237819232
14123238 8 18059858359351975163
14251718 22 18040718026280441701
14455015 7 4678820583817655655
177051 138 7781519209307863986
17834072 33 18272093764630898311
17834072 8 14345791673657422185
17834076 25 18343303660461775410
1986462 14 17095241441042987169
20369508 70 14996288037370237866
204376 136 16845569820743465563
20645477 70 16081361977803480814
20724930 37 14045744820277316522
20828058 21 18040157327132612979
20828058 44 11743836967448124049
20871999 31 17968947370291557463
21354914 88 7348894377458241536
22485316 2 14923952244766572254
23402655 69 18333731312604812904
23532345 1 16343706555575455491
23532345 12 7997977885682745170
26918003 58 13398632749081121885
32948 21 16950557852204456344
351380 3 6122505704738080308
42 15 10664104449827549536
449060 50 17203888569733803307
449060 62 17561361786267479374
49783359 22 11671780451262611569
4990 188 17821726152230079502
522135 26 15936410044109327318
5374978 207 13398632757639518606
94968 8 14201391690922001486

> <PUBCHEM_SHAPE_MULTIPOLES>
236.99
12.3
1.13
1.01
4.13
0.26
0.14
2.99
2.57
0
-0.1
-0.77
-0.13
-0.42

> <PUBCHEM_SHAPE_SELFOVERLAP>
424.586

> <PUBCHEM_SHAPE_VOLUME>
154.3

> <PUBCHEM_COORDINATE_TYPE>
2
5
10

$$$$

