3686
  -OEChem-06251223353D

 54 54  0     0  0  0  0  0  0999 V2000
   11.3506   -0.2270   -0.2851 O   0  0  0  0  0  0  0  0  0  0  0  0
   -5.0173   -2.3124    0.0788 O   0  0  0  0  0  0  0  0  0  0  0  0
   -2.5238   -1.8534    1.1388 O   0  0  0  0  0  0  0  0  0  0  0  0
   -6.3551   -0.1418   -1.0395 O   0  0  0  0  0  0  0  0  0  0  0  0
   -5.1139    2.2748   -0.9939 O   0  0  0  0  0  0  0  0  0  0  0  0
    2.5835    0.0698    0.0415 C   0  0  0  0  0  0  0  0  0  0  0  0
    3.9537    0.2785    0.6914 C   0  0  0  0  0  0  0  0  0  0  0  0
    1.4113    0.3941    0.9728 C   0  0  0  0  0  0  0  0  0  0  0  0
    5.0836   -0.0901   -0.2736 C   0  0  0  0  0  0  0  0  0  0  0  0
    0.0136    0.2858    0.3499 C   0  0  0  0  0  0  0  0  0  0  0  0
    6.4809    0.0872    0.3278 C   0  0  0  0  0  0  0  0  0  0  0  0
   -1.1532    0.5473    1.3056 C   0  0  0  0  0  0  0  0  0  0  0  0
    7.6114   -0.2100   -0.6598 C   0  0  0  0  0  0  0  0  0  0  0  0
   -2.4903    0.4748    0.6480 C   0  0  0  0  0  0  0  0  0  0  0  0
    8.9798   -0.0479    0.0005 C   0  0  0  0  0  0  0  0  0  0  0  0
   -3.1382    1.5153    0.0920 C   0  0  0  0  0  0  0  0  0  0  0  0
   -3.1079   -0.8862    0.6567 C   0  0  0  0  0  0  0  0  0  0  0  0
   10.1109   -0.3824   -0.9616 C   0  0  0  0  0  0  0  0  0  0  0  0
   -4.4981    1.3330   -0.5006 C   0  0  0  0  0  0  0  0  0  0  0  0
   -4.4519   -1.0527    0.0609 C   0  0  0  0  0  0  0  0  0  0  0  0
   -5.0999   -0.0184   -0.4781 C   0  0  0  0  0  0  0  0  0  0  0  0
   -2.5984    2.9162   -0.0152 C   0  0  0  0  0  0  0  0  0  0  0  0
   -4.6701   -3.0338   -1.0865 C   0  0  0  0  0  0  0  0  0  0  0  0
   -7.3612    0.0794   -0.0710 C   0  0  0  0  0  0  0  0  0  0  0  0
    2.5104    0.6989   -0.8542 H   0  0  0  0  0  0  0  0  0  0  0  0
    2.4916   -0.9704   -0.2943 H   0  0  0  0  0  0  0  0  0  0  0  0
    4.0288   -0.3368    1.5959 H   0  0  0  0  0  0  0  0  0  0  0  0
    4.0593    1.3251    1.0010 H   0  0  0  0  0  0  0  0  0  0  0  0
    1.4606   -0.2740    1.8419 H   0  0  0  0  0  0  0  0  0  0  0  0
    1.5383    1.4133    1.3593 H   0  0  0  0  0  0  0  0  0  0  0  0
    5.0015    0.5298   -1.1751 H   0  0  0  0  0  0  0  0  0  0  0  0
    4.9635   -1.1324   -0.5945 H   0  0  0  0  0  0  0  0  0  0  0  0
   -0.0951   -0.7182   -0.0804 H   0  0  0  0  0  0  0  0  0  0  0  0
   -0.0422    0.9867   -0.4931 H   0  0  0  0  0  0  0  0  0  0  0  0
    6.5855    1.1165    0.6929 H   0  0  0  0  0  0  0  0  0  0  0  0
    6.5777   -0.5693    1.2014 H   0  0  0  0  0  0  0  0  0  0  0  0
   -1.0148    1.5277    1.7778 H   0  0  0  0  0  0  0  0  0  0  0  0
   -1.0966   -0.1548    2.1474 H   0  0  0  0  0  0  0  0  0  0  0  0
    7.5037   -1.2336   -1.0384 H   0  0  0  0  0  0  0  0  0  0  0  0
    7.5338    0.4639   -1.5214 H   0  0  0  0  0  0  0  0  0  0  0  0
    9.1052    0.9780    0.3686 H   0  0  0  0  0  0  0  0  0  0  0  0
    9.0541   -0.6944    0.8840 H   0  0  0  0  0  0  0  0  0  0  0  0
   10.0989    0.2884   -1.8266 H   0  0  0  0  0  0  0  0  0  0  0  0
   10.0332   -1.4168   -1.3115 H   0  0  0  0  0  0  0  0  0  0  0  0
   -1.5519    3.0026    0.2870 H   0  0  0  0  0  0  0  0  0  0  0  0
   -2.6521    3.2674   -1.0517 H   0  0  0  0  0  0  0  0  0  0  0  0
   -3.1849    3.5958    0.6120 H   0  0  0  0  0  0  0  0  0  0  0  0
   12.0523   -0.4463   -0.9216 H   0  0  0  0  0  0  0  0  0  0  0  0
   -5.0619   -2.5509   -1.9885 H   0  0  0  0  0  0  0  0  0  0  0  0
   -5.1199   -4.0289   -1.0173 H   0  0  0  0  0  0  0  0  0  0  0  0
   -3.5852   -3.1609   -1.1711 H   0  0  0  0  0  0  0  0  0  0  0  0
   -7.3202   -0.6705    0.7267 H   0  0  0  0  0  0  0  0  0  0  0  0
   -7.2930    1.0855    0.3573 H   0  0  0  0  0  0  0  0  0  0  0  0
   -8.3338   -0.0095   -0.5644 H   0  0  0  0  0  0  0  0  0  0  0  0
  1 18  1  0  0  0  0
  1 48  1  0  0  0  0
  2 20  1  0  0  0  0
  2 23  1  0  0  0  0
  3 17  2  0  0  0  0
  4 21  1  0  0  0  0
  4 24  1  0  0  0  0
  5 19  2  0  0  0  0
  6  7  1  0  0  0  0
  6  8  1  0  0  0  0
  6 25  1  0  0  0  0
  6 26  1  0  0  0  0
  7  9  1  0  0  0  0
  7 27  1  0  0  0  0
  7 28  1  0  0  0  0
  8 10  1  0  0  0  0
  8 29  1  0  0  0  0
  8 30  1  0  0  0  0
  9 11  1  0  0  0  0
  9 31  1  0  0  0  0
  9 32  1  0  0  0  0
 10 12  1  0  0  0  0
 10 33  1  0  0  0  0
 10 34  1  0  0  0  0
 11 13  1  0  0  0  0
 11 35  1  0  0  0  0
 11 36  1  0  0  0  0
 12 14  1  0  0  0  0
 12 37  1  0  0  0  0
 12 38  1  0  0  0  0
 13 15  1  0  0  0  0
 13 39  1  0  0  0  0
 13 40  1  0  0  0  0
 14 16  2  0  0  0  0
 14 17  1  0  0  0  0
 15 18  1  0  0  0  0
 15 41  1  0  0  0  0
 15 42  1  0  0  0  0
 16 19  1  0  0  0  0
 16 22  1  0  0  0  0
 17 20  1  0  0  0  0
 18 43  1  0  0  0  0
 18 44  1  0  0  0  0
 19 21  1  0  0  0  0
 20 21  2  0  0  0  0
 22 45  1  0  0  0  0
 22 46  1  0  0  0  0
 22 47  1  0  0  0  0
 23 49  1  0  0  0  0
 23 50  1  0  0  0  0
 23 51  1  0  0  0  0
 24 52  1  0  0  0  0
 24 53  1  0  0  0  0
 24 54  1  0  0  0  0
M  END
> <PUBCHEM_COMPOUND_CID>
3686

> <PUBCHEM_CONFORMER_RMSD>
1

> <PUBCHEM_CONFORMER_DIVERSEORDER>
1
34
196
50
84
97
6
131
251
260
223
203
29
186
244
35
41
77
69
254
189
99
267
3
86
188
291
250
66
279
94
209
31
234
187
179
294
38
93
184
308
14
123
215
315
310
259
159
5
195
210
289
142
181
228
24
7
150
70
164
174
222
79
19
149
109
39
125
46
151
26
96
214
224
225
212
280
124
286
175
16
262
92
133
233
177
140
241
165
27
47
56
88
144
304
23
178
162
306
163
236
122
288
153
30
299
190
42
147
45
192
201
22
120
83
44
103
59
49
303
269
197
21
298
100
160
193
54
136
230
132
127
284
134
290
28
67
130
119
146
116
281
52
256
275
75
128
104
218
198
252
161
292
237
8
101
2
58
111
51
43
13
257
91
73
107
32
235
219
283
126
245
74
220
40
110
180
243
172
302
4
173
60
135
138
312
114
48
33
204
273
53
206
296
200
145
240
112
278
301
90
85
15
316
108
117
157
37
71
80
166
272
72
232
261
263
152
87
207
199
217
285
313
9
68
271
102
61
277
76
143
182
239
137
12
121
238
282
274
169
311
115
55
57
63
314
106
10
141
154
155
305
300
176
216
81
20
18
171
191
167
194
247
78
231
89
227
62
148
17
249
64
105
253
183
113
82
170
297
242
208
229
266
11
156
276
221
25
295
264
129
211
95
255
65
287
98
307
185
205
265
202
258
293
317
139
158
248
213
270
268
36
226
309
246
168
118

> <PUBCHEM_MMFF94_PARTIAL_CHARGES>
17
1 -0.68
12 0.14
14 -0.12
16 -0.12
17 0.54
18 0.28
19 0.54
2 -0.36
20 0.09
21 0.09
22 0.14
23 0.28
24 0.28
3 -0.57
4 -0.36
48 0.4
5 -0.57

> <PUBCHEM_EFFECTIVE_ROTOR_COUNT>
12

> <PUBCHEM_PHARMACOPHORE_FEATURES>
7
1 1 acceptor
1 1 donor
1 2 acceptor
1 3 acceptor
1 4 acceptor
1 5 acceptor
6 14 16 17 19 20 21 rings

> <PUBCHEM_HEAVY_ATOM_COUNT>
24

> <PUBCHEM_ATOM_DEF_STEREO_COUNT>
0

> <PUBCHEM_ATOM_UDEF_STEREO_COUNT>
0

> <PUBCHEM_BOND_DEF_STEREO_COUNT>
0

> <PUBCHEM_BOND_UDEF_STEREO_COUNT>
0

> <PUBCHEM_ISOTOPIC_ATOM_COUNT>
0

> <PUBCHEM_COMPONENT_COUNT>
1

> <PUBCHEM_CACTVS_TAUTO_COUNT>
9

> <PUBCHEM_CONFORMER_ID>
00000E6600000001

> <PUBCHEM_MMFF94_ENERGY>
42.5805

> <PUBCHEM_FEATURE_SELFOVERLAP>
35.536

> <PUBCHEM_SHAPE_FINGERPRINT>
10 15 10592045756589464160
11315181 36 18413103961486416584
11524674 6 16732706021994820023
12082328 90 18114462357756746836
12091667 2 18060414720793987792
12643181 29 18040435469099151391
13140716 1 8789738490637220421
13885169 127 18412825811658210188
14251764 46 18410854364916795576
14849402 71 6771280259766451658
15152005 1 17537447219027667647
15183329 4 18201441393613311378
15461852 350 18411696578872440468
15510794 2 18187080686056499006
15716309 27 14201119007437540064
15979999 66 18410571765862602628
18643901 69 18261674788504716199
18681886 176 18411705353285093000
195137 175 17060331930192972140
20721686 146 17344363383429605221
21150785 3 18341894100241721640
21267235 1 18342175536727361177
21360442 43 17988357070811644634
21360443 120 17418095438216859170
23559900 14 18265625294807064393
246663 6 16225764121761739656
54039377 194 18201433628740208123
636775 8 18130783413822947627

> <PUBCHEM_SHAPE_MULTIPOLES>
464.56
30.31
2.14
1.03
99.67
0.37
-0.05
5.9
9.68
-5.85
0.48
-0.34
0.07
0.54

> <PUBCHEM_SHAPE_SELFOVERLAP>
918.948

> <PUBCHEM_SHAPE_VOLUME>
277

> <PUBCHEM_COORDINATE_TYPE>
2
5
10

$$$$

