17396103
  -OEChem-06241222543D

 52 54  0     1  0  0  0  0  0999 V2000
   -4.7678   -1.9941   -0.3478 S   0  0  0  0  0  0  0  0  0  0  0  0
   -5.9801   -2.1050    0.4364 O   0  0  0  0  0  0  0  0  0  0  0  0
   -4.1060   -3.1489   -0.9181 O   0  0  0  0  0  0  0  0  0  0  0  0
   -3.5828    2.8316    1.4473 O   0  0  0  0  0  0  0  0  0  0  0  0
    1.1609    0.8698   -1.9323 O   0  0  0  0  0  0  0  0  0  0  0  0
   -2.4772    1.1416    0.2998 N   0  0  0  0  0  0  0  0  0  0  0  0
   -1.3127    0.6060   -0.1790 N   0  0  0  0  0  0  0  0  0  0  0  0
    1.7750    0.1932    0.2507 N   0  0  0  0  0  0  0  0  0  0  0  0
   -3.6544    0.3704    0.0133 C   0  0  2  0  0  0  0  0  0  0  0  0
   -3.5670   -1.0471    0.5774 C   0  0  0  0  0  0  0  0  0  0  0  0
   -3.8872    0.2119   -1.4914 C   0  0  0  0  0  0  0  0  0  0  0  0
   -5.0307   -0.7855   -1.6372 C   0  0  0  0  0  0  0  0  0  0  0  0
   -2.5399    2.3238    1.0310 C   0  0  0  0  0  0  0  0  0  0  0  0
   -1.2091    2.9404    1.3860 C   0  0  0  0  0  0  0  0  0  0  0  0
   -0.2236    2.7792    0.2563 C   0  0  0  0  0  0  0  0  0  0  0  0
   -0.2602    1.3536   -0.1807 C   0  0  0  0  0  0  0  0  0  0  0  0
    0.9923    0.7682   -0.7276 C   0  0  0  0  0  0  0  0  0  0  0  0
    3.0234   -0.4486    0.0742 C   0  0  0  0  0  0  0  0  0  0  0  0
    3.1765   -1.7876    0.4341 C   0  0  0  0  0  0  0  0  0  0  0  0
    4.1018    0.2577   -0.4592 C   0  0  0  0  0  0  0  0  0  0  0  0
    2.0405   -2.5707    1.0086 C   0  0  0  0  0  0  0  0  0  0  0  0
    3.9692    1.6929   -0.8545 C   0  0  0  0  0  0  0  0  0  0  0  0
    4.4076   -2.4201    0.2611 C   0  0  0  0  0  0  0  0  0  0  0  0
    5.3327   -0.3750   -0.6323 C   0  0  0  0  0  0  0  0  0  0  0  0
    5.4856   -1.7140   -0.2721 C   0  0  0  0  0  0  0  0  0  0  0  0
    1.9868   -2.4790    2.5302 C   0  0  0  0  0  0  0  0  0  0  0  0
    5.1466    2.5353   -0.3741 C   0  0  0  0  0  0  0  0  0  0  0  0
   -4.5352    0.8623    0.4456 H   0  0  0  0  0  0  0  0  0  0  0  0
   -3.8121   -1.0847    1.6418 H   0  0  0  0  0  0  0  0  0  0  0  0
   -2.5921   -1.5170    0.4153 H   0  0  0  0  0  0  0  0  0  0  0  0
   -4.1272    1.1663   -1.9717 H   0  0  0  0  0  0  0  0  0  0  0  0
   -2.9956   -0.1874   -1.9909 H   0  0  0  0  0  0  0  0  0  0  0  0
   -5.0363   -1.2780   -2.6116 H   0  0  0  0  0  0  0  0  0  0  0  0
   -5.9961   -0.3049   -1.4540 H   0  0  0  0  0  0  0  0  0  0  0  0
   -1.3506    4.0021    1.6130 H   0  0  0  0  0  0  0  0  0  0  0  0
   -0.8459    2.4415    2.2924 H   0  0  0  0  0  0  0  0  0  0  0  0
   -0.5002    3.4023   -0.6014 H   0  0  0  0  0  0  0  0  0  0  0  0
    0.7837    3.0595    0.5783 H   0  0  0  0  0  0  0  0  0  0  0  0
    1.2894   -0.0380    1.1145 H   0  0  0  0  0  0  0  0  0  0  0  0
    2.1403   -3.6258    0.7215 H   0  0  0  0  0  0  0  0  0  0  0  0
    1.0820   -2.2560    0.5797 H   0  0  0  0  0  0  0  0  0  0  0  0
    3.0857    2.1656   -0.4186 H   0  0  0  0  0  0  0  0  0  0  0  0
    3.8772    1.7666   -1.9442 H   0  0  0  0  0  0  0  0  0  0  0  0
    4.5423   -3.4625    0.5381 H   0  0  0  0  0  0  0  0  0  0  0  0
    6.1859    0.1362   -1.0668 H   0  0  0  0  0  0  0  0  0  0  0  0
    6.4426   -2.2083   -0.4116 H   0  0  0  0  0  0  0  0  0  0  0  0
    1.8550   -1.4457    2.8671 H   0  0  0  0  0  0  0  0  0  0  0  0
    1.1489   -3.0697    2.9137 H   0  0  0  0  0  0  0  0  0  0  0  0
    2.9071   -2.8639    2.9826 H   0  0  0  0  0  0  0  0  0  0  0  0
    6.0727    2.3045   -0.9094 H   0  0  0  0  0  0  0  0  0  0  0  0
    4.9373    3.5960   -0.5524 H   0  0  0  0  0  0  0  0  0  0  0  0
    5.3239    2.4055    0.6991 H   0  0  0  0  0  0  0  0  0  0  0  0
  1  2  2  0  0  0  0
  1  3  2  0  0  0  0
  1 10  1  0  0  0  0
  1 12  1  0  0  0  0
  4 13  2  0  0  0  0
  5 17  2  0  0  0  0
  6  7  1  0  0  0  0
  6  9  1  0  0  0  0
  6 13  1  0  0  0  0
  7 16  2  0  0  0  0
  8 17  1  0  0  0  0
  8 18  1  0  0  0  0
  8 39  1  0  0  0  0
  9 10  1  0  0  0  0
  9 11  1  0  0  0  0
  9 28  1  0  0  0  0
 10 29  1  0  0  0  0
 10 30  1  0  0  0  0
 11 12  1  0  0  0  0
 11 31  1  0  0  0  0
 11 32  1  0  0  0  0
 12 33  1  0  0  0  0
 12 34  1  0  0  0  0
 13 14  1  0  0  0  0
 14 15  1  0  0  0  0
 14 35  1  0  0  0  0
 14 36  1  0  0  0  0
 15 16  1  0  0  0  0
 15 37  1  0  0  0  0
 15 38  1  0  0  0  0
 16 17  1  0  0  0  0
 18 19  2  0  0  0  0
 18 20  1  0  0  0  0
 19 21  1  0  0  0  0
 19 23  1  0  0  0  0
 20 22  1  0  0  0  0
 20 24  2  0  0  0  0
 21 26  1  0  0  0  0
 21 40  1  0  0  0  0
 21 41  1  0  0  0  0
 22 27  1  0  0  0  0
 22 42  1  0  0  0  0
 22 43  1  0  0  0  0
 23 25  2  0  0  0  0
 23 44  1  0  0  0  0
 24 25  1  0  0  0  0
 24 45  1  0  0  0  0
 25 46  1  0  0  0  0
 26 47  1  0  0  0  0
 26 48  1  0  0  0  0
 26 49  1  0  0  0  0
 27 50  1  0  0  0  0
 27 51  1  0  0  0  0
 27 52  1  0  0  0  0
M  END
> <PUBCHEM_COMPOUND_CID>
17396103

> <PUBCHEM_CONFORMER_RMSD>
0.8

> <PUBCHEM_CONFORMER_DIVERSEORDER>
3
76
25
24
67
34
136
53
37
103
30
71
126
127
97
84
51
64
141
31
145
91
86
137
80
115
129
41
88
140
68
132
87
112
2
147
28
98
120
63
59
44
16
94
104
82
73
79
93
23
138
109
131
14
22
74
123
124
15
101
107
43
90
66
95
89
111
144
130
128
19
122
54
35
116
118
8
42
12
148
114
57
20
78
135
121
47
75
7
70
146
62
56
92
36
11
105
50
85
113
72
9
96
46
58
55
65
143
40
134
52
61
27
77
4
21
5
32
38
142
119
81
106
6
29
110
48
1
102
69
10
133
13
100
99
17
26
39
139
18
49
33
125
108
117
45
60
83

> <PUBCHEM_MMFF94_PARTIAL_CHARGES>
28
1 1.09
10 0.11
12 0.11
13 0.57
14 0.06
15 0.06
16 0.39
17 0.63
18 0.12
19 -0.14
2 -0.65
20 -0.14
21 0.14
22 0.14
23 -0.15
24 -0.15
25 -0.15
3 -0.65
39 0.37
4 -0.57
44 0.15
45 0.15
46 0.15
5 -0.57
6 -0.3
7 -0.51
8 -0.55
9 0.3

> <PUBCHEM_EFFECTIVE_ROTOR_COUNT>
7.4

> <PUBCHEM_PHARMACOPHORE_FEATURES>
11
1 2 acceptor
1 26 hydrophobe
1 27 hydrophobe
1 3 acceptor
1 4 acceptor
1 5 acceptor
1 7 acceptor
1 8 donor
5 1 9 10 11 12 rings
6 18 19 20 23 24 25 rings
6 6 7 13 14 15 16 rings

> <PUBCHEM_HEAVY_ATOM_COUNT>
27

> <PUBCHEM_ATOM_DEF_STEREO_COUNT>
0

> <PUBCHEM_ATOM_UDEF_STEREO_COUNT>
1

> <PUBCHEM_BOND_DEF_STEREO_COUNT>
0

> <PUBCHEM_BOND_UDEF_STEREO_COUNT>
0

> <PUBCHEM_ISOTOPIC_ATOM_COUNT>
0

> <PUBCHEM_COMPONENT_COUNT>
1

> <PUBCHEM_CACTVS_TAUTO_COUNT>
2

> <PUBCHEM_CONFORMER_ID>
0109718700000003

> <PUBCHEM_MMFF94_ENERGY>
76.5059

> <PUBCHEM_FEATURE_SELFOVERLAP>
55.835

> <PUBCHEM_SHAPE_FINGERPRINT>
10616163 171 18263641921326414750
11135609 187 18127689327345362580
11513181 2 17824829085782210743
11545043 162 17023474165076891314
11552529 35 18263362654042087208
12107183 9 17760361493624633336
12553582 1 18260558783938766247
12596602 18 18410293588248520463
12788726 201 18187363233988757569
13167823 11 18408884070381949564
13631057 29 18409449184882921370
13726171 33 17531508928666392640
14787075 74 18267020561987580844
14931854 50 18202287996039959127
15183329 4 18129115566510406325
15250474 111 18338520853859402602
17134984 74 17775014440454787795
17138139 8 18196374706314569238
17492 89 18262512714716884206
20028762 73 18411422834758728442
20511986 3 18340215188361229085
20775530 9 18343030965094913707
21033648 29 15141228971584249491
21054139 6 18343585144714495658
22393880 68 17917439760303674934
23559900 14 18335997453008890376
23598288 3 18187365471598757885
3004659 81 18273502277163911423
312423 11 18334853957090372004
314194 84 18263082128490330919
329604 57 18408884014478809380
46194498 28 16988000467001016799
463206 1 18267584603037360003
504579 68 18409160039390481204
5104073 3 18040714796739790584
6669772 16 17758121401845025352
6913067 236 17775015552914302700
7970288 3 18188215299608629327

> <PUBCHEM_SHAPE_MULTIPOLES>
521.08
13.34
3.88
1.51
1.52
0.2
-0.33
-6.51
3.22
0.49
-1.47
0.59
-0.17
-2.59

> <PUBCHEM_SHAPE_SELFOVERLAP>
1087.518

> <PUBCHEM_SHAPE_VOLUME>
296.9

> <PUBCHEM_COORDINATE_TYPE>
2
5
10

$$$$

