6502
  -OEChem-06261201212D

 20 19  0     0  0  0  0  0  0999 V2000
    4.2690    1.0306    0.0000 O   0  0  0  0  0  0  0  0  0  0  0  0
    6.0010   -0.7015    0.0000 O   0  0  0  0  0  0  0  0  0  0  0  0
    2.5369   -0.7015    0.0000 O   0  0  0  0  0  0  0  0  0  0  0  0
    4.2690   -0.7015    0.0000 C   0  0  0  0  0  0  0  0  0  0  0  0
    5.1350   -0.2015    0.0000 C   0  0  0  0  0  0  0  0  0  0  0  0
    3.4030   -1.2015    0.0000 C   0  0  0  0  0  0  0  0  0  0  0  0
    3.7690    0.1645    0.0000 C   0  0  0  0  0  0  0  0  0  0  0  0
    4.7690   -1.5675    0.0000 C   0  0  0  0  0  0  0  0  0  0  0  0
    5.5335    0.2735    0.0000 H   0  0  0  0  0  0  0  0  0  0  0  0
    4.7365    0.2735    0.0000 H   0  0  0  0  0  0  0  0  0  0  0  0
    3.0044   -1.6764    0.0000 H   0  0  0  0  0  0  0  0  0  0  0  0
    3.8015   -1.6764    0.0000 H   0  0  0  0  0  0  0  0  0  0  0  0
    3.2940    0.5631    0.0000 H   0  0  0  0  0  0  0  0  0  0  0  0
    3.2940   -0.2340    0.0000 H   0  0  0  0  0  0  0  0  0  0  0  0
    4.2320   -1.8775    0.0000 H   0  0  0  0  0  0  0  0  0  0  0  0
    5.0790   -2.1044    0.0000 H   0  0  0  0  0  0  0  0  0  0  0  0
    5.3059   -1.2575    0.0000 H   0  0  0  0  0  0  0  0  0  0  0  0
    2.0000   -1.0115    0.0000 H   0  0  0  0  0  0  0  0  0  0  0  0
    6.5380   -0.3915    0.0000 H   0  0  0  0  0  0  0  0  0  0  0  0
    3.9590    1.5675    0.0000 H   0  0  0  0  0  0  0  0  0  0  0  0
  1  7  1  0  0  0  0
  1 20  1  0  0  0  0
  2  5  1  0  0  0  0
  2 19  1  0  0  0  0
  3  6  1  0  0  0  0
  3 18  1  0  0  0  0
  4  5  1  0  0  0  0
  4  6  1  0  0  0  0
  4  7  1  0  0  0  0
  4  8  1  0  0  0  0
  5  9  1  0  0  0  0
  5 10  1  0  0  0  0
  6 11  1  0  0  0  0
  6 12  1  0  0  0  0
  7 13  1  0  0  0  0
  7 14  1  0  0  0  0
  8 15  1  0  0  0  0
  8 16  1  0  0  0  0
  8 17  1  0  0  0  0
M  END
> <PUBCHEM_COMPOUND_CID>
6502

> <PUBCHEM_COMPOUND_CANONICALIZED>
1

> <PUBCHEM_CACTVS_COMPLEXITY>
50.4

> <PUBCHEM_CACTVS_HBOND_ACCEPTOR>
3

> <PUBCHEM_CACTVS_HBOND_DONOR>
3

> <PUBCHEM_CACTVS_ROTATABLE_BOND>
3

> <PUBCHEM_CACTVS_SUBSKEYS>
AAADccBgMAAAAAAAAAAAAAAAAAAAAAAAAAAAAAAAAAAAAAAAAAAAGgAACAAADgCggAICAAAAAgAAAAAAAAAAAAAAAAAAAAAAAAAAEAAAAAAAQAABAAAAAAAAAAAAAAAAAAAAAAAAAAAAAAAAAAAAAAAAAA==

> <PUBCHEM_IUPAC_OPENEYE_NAME>
2-(hydroxymethyl)-2-methyl-propane-1,3-diol

> <PUBCHEM_IUPAC_CAS_NAME>
2-(hydroxymethyl)-2-methylpropane-1,3-diol

> <PUBCHEM_IUPAC_NAME>
2-(hydroxymethyl)-2-methylpropane-1,3-diol

> <PUBCHEM_IUPAC_SYSTEMATIC_NAME>
2-(hydroxymethyl)-2-methyl-propane-1,3-diol

> <PUBCHEM_IUPAC_TRADITIONAL_NAME>
2-methyl-2-methylol-propane-1,3-diol

> <PUBCHEM_IUPAC_INCHI>
InChI=1S/C5H12O3/c1-5(2-6,3-7)4-8/h6-8H,2-4H2,1H3

> <PUBCHEM_IUPAC_INCHIKEY>
QXJQHYBHAIHNGG-UHFFFAOYSA-N

> <PUBCHEM_XLOGP3_AA>
-1.2

> <PUBCHEM_EXACT_MASS>
120.078644

> <PUBCHEM_MOLECULAR_FORMULA>
C5H12O3

> <PUBCHEM_MOLECULAR_WEIGHT>
120.14698

> <PUBCHEM_OPENEYE_CAN_SMILES>
CC(CO)(CO)CO

> <PUBCHEM_OPENEYE_ISO_SMILES>
CC(CO)(CO)CO

> <PUBCHEM_CACTVS_TPSA>
60.7

> <PUBCHEM_MONOISOTOPIC_WEIGHT>
120.078644

> <PUBCHEM_TOTAL_CHARGE>
0

> <PUBCHEM_HEAVY_ATOM_COUNT>
8

> <PUBCHEM_ATOM_DEF_STEREO_COUNT>
0

> <PUBCHEM_ATOM_UDEF_STEREO_COUNT>
0

> <PUBCHEM_BOND_DEF_STEREO_COUNT>
0

> <PUBCHEM_BOND_UDEF_STEREO_COUNT>
0

> <PUBCHEM_ISOTOPIC_ATOM_COUNT>
0

> <PUBCHEM_COMPONENT_COUNT>
1

> <PUBCHEM_CACTVS_TAUTO_COUNT>
1

> <PUBCHEM_COORDINATE_TYPE>
1
5
255

$$$$

