10773
  -OEChem-06261204562D

 22 21  0     0  0  0  0  0  0999 V2000
    6.5010    7.1200    0.0000 Na  0  3  0  0  0  0  0  0  0  0  0  0
    3.0369    4.1200    0.0000 O   0  0  0  0  0  0  0  0  0  0  0  0
    5.6350    6.6200    0.0000 O   0  5  0  0  0  0  0  0  0  0  0  0
    6.5010    5.1200    0.0000 O   0  0  0  0  0  0  0  0  0  0  0  0
    4.7690    4.1200    0.0000 N   0  0  0  0  0  0  0  0  0  0  0  0
    3.9030    2.6200    0.0000 C   0  0  0  0  0  0  0  0  0  0  0  0
    3.9030    3.6200    0.0000 C   0  0  0  0  0  0  0  0  0  0  0  0
    4.7690    2.1200    0.0000 C   0  0  0  0  0  0  0  0  0  0  0  0
    3.0369    2.1200    0.0000 C   0  0  0  0  0  0  0  0  0  0  0  0
    4.7690    5.1200    0.0000 C   0  0  0  0  0  0  0  0  0  0  0  0
    4.7690    1.1200    0.0000 C   0  0  0  0  0  0  0  0  0  0  0  0
    3.0369    1.1200    0.0000 C   0  0  0  0  0  0  0  0  0  0  0  0
    3.9030    0.6200    0.0000 C   0  0  0  0  0  0  0  0  0  0  0  0
    5.6350    5.6200    0.0000 C   0  0  0  0  0  0  0  0  0  0  0  0
    5.3059    3.8100    0.0000 H   0  0  0  0  0  0  0  0  0  0  0  0
    5.3059    2.4300    0.0000 H   0  0  0  0  0  0  0  0  0  0  0  0
    2.5000    2.4300    0.0000 H   0  0  0  0  0  0  0  0  0  0  0  0
    4.5569    5.7026    0.0000 H   0  0  0  0  0  0  0  0  0  0  0  0
    4.1584    5.0123    0.0000 H   0  0  0  0  0  0  0  0  0  0  0  0
    5.3059    0.8100    0.0000 H   0  0  0  0  0  0  0  0  0  0  0  0
    2.5000    0.8100    0.0000 H   0  0  0  0  0  0  0  0  0  0  0  0
    3.9030    0.0000    0.0000 H   0  0  0  0  0  0  0  0  0  0  0  0
  2  7  2  0  0  0  0
  3 14  1  0  0  0  0
  4 14  2  0  0  0  0
  5  7  1  0  0  0  0
  5 10  1  0  0  0  0
  5 15  1  0  0  0  0
  6  7  1  0  0  0  0
  6  8  2  0  0  0  0
  6  9  1  0  0  0  0
  8 11  1  0  0  0  0
  8 16  1  0  0  0  0
  9 12  2  0  0  0  0
  9 17  1  0  0  0  0
 10 14  1  0  0  0  0
 10 18  1  0  0  0  0
 10 19  1  0  0  0  0
 11 13  2  0  0  0  0
 11 20  1  0  0  0  0
 12 13  1  0  0  0  0
 12 21  1  0  0  0  0
 13 22  1  0  0  0  0
M  CHG  2   1   1   3  -1
M  END
> <PUBCHEM_COMPOUND_CID>
10773

> <PUBCHEM_COMPOUND_CANONICALIZED>
1

> <PUBCHEM_CACTVS_COMPLEXITY>
192

> <PUBCHEM_CACTVS_HBOND_ACCEPTOR>
3

> <PUBCHEM_CACTVS_HBOND_DONOR>
1

> <PUBCHEM_CACTVS_ROTATABLE_BOND>
2

> <PUBCHEM_CACTVS_SUBSKEYS>
AAADccByMCAAAAAAAAAAAAAAAAAAAAAAAAAwAAAAAAAAAAABAAAAHgAQAAAADADBmAQwCILAAACIAiHSGACCAAAkAAAIiIGIBMgKIDKAlTGEIQhghgCYiYcYiACOAAAAAAAAAAAAAAAAAAAAAAAAAAAAAA==

> <PUBCHEM_IUPAC_OPENEYE_NAME>
sodium 2-benzamidoacetate

> <PUBCHEM_IUPAC_CAS_NAME>
sodium 2-benzamidoacetate

> <PUBCHEM_IUPAC_NAME>
sodium 2-benzamidoacetate

> <PUBCHEM_IUPAC_SYSTEMATIC_NAME>
sodium 2-benzamidoethanoate

> <PUBCHEM_IUPAC_TRADITIONAL_NAME>
sodium 2-benzamidoacetate

> <PUBCHEM_IUPAC_INCHI>
InChI=1S/C9H9NO3.Na/c11-8(12)6-10-9(13)7-4-2-1-3-5-7;/h1-5H,6H2,(H,10,13)(H,11,12);/q;+1/p-1

> <PUBCHEM_IUPAC_INCHIKEY>
ZBCAZEFVTIBZJS-UHFFFAOYSA-M

> <PUBCHEM_EXACT_MASS>
201.040187

> <PUBCHEM_MOLECULAR_FORMULA>
C9H8NNaO3

> <PUBCHEM_MOLECULAR_WEIGHT>
201.154489

> <PUBCHEM_OPENEYE_CAN_SMILES>
C1=CC=C(C=C1)C(=O)NCC(=O)[O-].[Na+]

> <PUBCHEM_OPENEYE_ISO_SMILES>
C1=CC=C(C=C1)C(=O)NCC(=O)[O-].[Na+]

> <PUBCHEM_CACTVS_TPSA>
69.2

> <PUBCHEM_MONOISOTOPIC_WEIGHT>
201.040187

> <PUBCHEM_TOTAL_CHARGE>
0

> <PUBCHEM_HEAVY_ATOM_COUNT>
14

> <PUBCHEM_ATOM_DEF_STEREO_COUNT>
0

> <PUBCHEM_ATOM_UDEF_STEREO_COUNT>
0

> <PUBCHEM_BOND_DEF_STEREO_COUNT>
0

> <PUBCHEM_BOND_UDEF_STEREO_COUNT>
0

> <PUBCHEM_ISOTOPIC_ATOM_COUNT>
0

> <PUBCHEM_COMPONENT_COUNT>
2

> <PUBCHEM_CACTVS_TAUTO_COUNT>
2

> <PUBCHEM_COORDINATE_TYPE>
1
5
255

> <PUBCHEM_BONDANNOTATIONS>
11  13  8
12  13  8
6  8  8
6  9  8
8  11  8
9  12  8

$$$$

