47205326
  -OEChem-06241222583D

 36 37  0     0  0  0  0  0  0999 V2000
   -6.6315   -1.3418    0.6298 I   0  0  0  0  0  0  0  0  0  0  0  0
    1.2944    1.0655    0.7623 O   0  0  0  0  0  0  0  0  0  0  0  0
   -1.0131   -1.5929    0.7391 O   0  0  0  0  0  0  0  0  0  0  0  0
    3.2208   -0.1418    0.2836 N   0  0  0  0  0  0  0  0  0  0  0  0
   -0.2262   -0.1018   -0.8564 N   0  0  0  0  0  0  0  0  0  0  0  0
    6.0771    0.0710   -0.1133 C   0  0  0  0  0  0  0  0  0  0  0  0
    5.1857   -0.6687   -1.1097 C   0  0  0  0  0  0  0  0  0  0  0  0
    5.2901    1.1518    0.6260 C   0  0  0  0  0  0  0  0  0  0  0  0
    3.9277   -1.2102   -0.4338 C   0  0  0  0  0  0  0  0  0  0  0  0
    4.0319    0.5754    1.2697 C   0  0  0  0  0  0  0  0  0  0  0  0
    1.8756    0.1872    0.1198 C   0  0  0  0  0  0  0  0  0  0  0  0
    1.1101   -0.5958   -0.9169 C   0  0  0  0  0  0  0  0  0  0  0  0
   -1.2028   -0.6460   -0.0198 C   0  0  0  0  0  0  0  0  0  0  0  0
   -2.5547   -0.0344   -0.0933 C   0  0  0  0  0  0  0  0  0  0  0  0
   -3.6825   -0.7909    0.2252 C   0  0  0  0  0  0  0  0  0  0  0  0
   -2.6954    1.2979   -0.4819 C   0  0  0  0  0  0  0  0  0  0  0  0
   -4.9512   -0.2152    0.1552 C   0  0  0  0  0  0  0  0  0  0  0  0
   -3.9640    1.8735   -0.5522 C   0  0  0  0  0  0  0  0  0  0  0  0
   -5.0919    1.1172   -0.2333 C   0  0  0  0  0  0  0  0  0  0  0  0
    6.4875   -0.6432    0.6110 H   0  0  0  0  0  0  0  0  0  0  0  0
    6.9266    0.5224   -0.6378 H   0  0  0  0  0  0  0  0  0  0  0  0
    5.7446   -1.4906   -1.5703 H   0  0  0  0  0  0  0  0  0  0  0  0
    4.8980    0.0200   -1.9140 H   0  0  0  0  0  0  0  0  0  0  0  0
    5.0077    1.9392   -0.0839 H   0  0  0  0  0  0  0  0  0  0  0  0
    5.9219    1.6156    1.3914 H   0  0  0  0  0  0  0  0  0  0  0  0
    4.1908   -1.9765    0.3050 H   0  0  0  0  0  0  0  0  0  0  0  0
    3.2940   -1.6873   -1.1835 H   0  0  0  0  0  0  0  0  0  0  0  0
    3.4558    1.3794    1.7384 H   0  0  0  0  0  0  0  0  0  0  0  0
    4.2970   -0.1400    2.0572 H   0  0  0  0  0  0  0  0  0  0  0  0
    1.5090   -0.3999   -1.9153 H   0  0  0  0  0  0  0  0  0  0  0  0
    1.1265   -1.6639   -0.6849 H   0  0  0  0  0  0  0  0  0  0  0  0
   -0.4638    0.6464   -1.4987 H   0  0  0  0  0  0  0  0  0  0  0  0
   -3.5716   -1.8311    0.5234 H   0  0  0  0  0  0  0  0  0  0  0  0
   -1.8422    1.9303   -0.7080 H   0  0  0  0  0  0  0  0  0  0  0  0
   -4.0735    2.9129   -0.8479 H   0  0  0  0  0  0  0  0  0  0  0  0
   -6.0708    1.5860   -0.2930 H   0  0  0  0  0  0  0  0  0  0  0  0
  1 17  1  0  0  0  0
  2 11  2  0  0  0  0
  3 13  2  0  0  0  0
  4  9  1  0  0  0  0
  4 10  1  0  0  0  0
  4 11  1  0  0  0  0
  5 12  1  0  0  0  0
  5 13  1  0  0  0  0
  5 32  1  0  0  0  0
  6  7  1  0  0  0  0
  6  8  1  0  0  0  0
  6 20  1  0  0  0  0
  6 21  1  0  0  0  0
  7  9  1  0  0  0  0
  7 22  1  0  0  0  0
  7 23  1  0  0  0  0
  8 10  1  0  0  0  0
  8 24  1  0  0  0  0
  8 25  1  0  0  0  0
  9 26  1  0  0  0  0
  9 27  1  0  0  0  0
 10 28  1  0  0  0  0
 10 29  1  0  0  0  0
 11 12  1  0  0  0  0
 12 30  1  0  0  0  0
 12 31  1  0  0  0  0
 13 14  1  0  0  0  0
 14 15  2  0  0  0  0
 14 16  1  0  0  0  0
 15 17  1  0  0  0  0
 15 33  1  0  0  0  0
 16 18  2  0  0  0  0
 16 34  1  0  0  0  0
 17 19  2  0  0  0  0
 18 19  1  0  0  0  0
 18 35  1  0  0  0  0
 19 36  1  0  0  0  0
M  END
> <PUBCHEM_COMPOUND_CID>
47205326

> <PUBCHEM_CONFORMER_RMSD>
0.8

> <PUBCHEM_CONFORMER_DIVERSEORDER>
1
15
10
53
52
79
23
63
45
6
67
13
58
51
41
77
57
49
69
7
5
24
35
73
18
33
26
76
40
42
43
19
74
20
16
11
72
78
56
82
34
86
89
59
36
71
68
75
30
27
25
60
48
29
64
47
50
66
61
65
8
62
46
3
22
14
83
44
85
91
32
38
54
90
12
2
88
31
81
39
17
55
4
37
80
84
21
9
87
70
28

> <PUBCHEM_MMFF94_PARTIAL_CHARGES>
21
1 -0.08
10 0.3
11 0.57
12 0.36
13 0.54
14 0.09
15 -0.15
16 -0.15
17 0.08
18 -0.15
19 -0.15
2 -0.57
3 -0.57
32 0.37
33 0.15
34 0.15
35 0.15
36 0.15
4 -0.66
5 -0.73
9 0.3

> <PUBCHEM_EFFECTIVE_ROTOR_COUNT>
6.2

> <PUBCHEM_PHARMACOPHORE_FEATURES>
6
1 1 hydrophobe
1 2 acceptor
1 3 acceptor
1 5 donor
6 14 15 16 17 18 19 rings
6 4 6 7 8 9 10 rings

> <PUBCHEM_HEAVY_ATOM_COUNT>
19

> <PUBCHEM_ATOM_DEF_STEREO_COUNT>
0

> <PUBCHEM_ATOM_UDEF_STEREO_COUNT>
0

> <PUBCHEM_BOND_DEF_STEREO_COUNT>
0

> <PUBCHEM_BOND_UDEF_STEREO_COUNT>
0

> <PUBCHEM_ISOTOPIC_ATOM_COUNT>
0

> <PUBCHEM_COMPONENT_COUNT>
1

> <PUBCHEM_CACTVS_TAUTO_COUNT>
2

> <PUBCHEM_CONFORMER_ID>
02D04BCE00000001

> <PUBCHEM_MMFF94_ENERGY>
39.2535

> <PUBCHEM_FEATURE_SELFOVERLAP>
30.446

> <PUBCHEM_SHAPE_FINGERPRINT>
10 15 18339086986773662544
10366900 7 16774077371329393401
10912923 1 16773795913316007580
11315181 36 16917342611473767353
12107183 9 17196028362817542617
12166972 35 17967530147095467409
12236239 1 16774078479161456117
12403259 415 18259708895424988585
12596602 18 17489312987774331273
12616971 3 14707213201437831273
12730499 353 18187642514248301214
12916748 109 18343019990772587848
13073987 5 18342741857354416578
13288520 33 18273211985547483959
13533116 47 14634862094268302270
1420 363 18409726249287077495
14251718 22 18272367572621350838
14251732 16 18410010996822912091
14251764 18 17775283846161244622
14341114 176 18260545615041347089
14573314 32 18410009974705072430
14933364 13 18333729117502199217
15042514 8 18198336257324869667
15183329 4 16515404088161586752
15778101 99 18336825416141818321
15788980 27 7204770406174304444
17349148 13 14779265306702648950
17834072 33 16415474926515612071
17844677 252 18409724067085254888
18927931 339 18342454812712750455
19433438 28 18408324393130479609
19489759 90 18060138747870719569
200 152 16081089302745143827
20645477 56 18261117361303912639
20645477 70 17603861243792175214
21033648 29 18041575696747705984
21150785 3 16773792559231587615
21267235 1 18272363149680820155
21279426 13 18190459565880046972
2297311 6 18411693301311480485
23402539 116 18413113848980894143
23557571 272 18408595981482650773
23559900 14 18408608041339679544
2916195 48 18410580582232072793
34797466 226 18335688413443491428
351380 180 18409452483718588917
3545911 37 18186801370171672502
4325135 7 17603871070782616071
5104073 3 18269272529558127555
542803 24 15574432124178433383
9996256 80 18259987046376742863

> <PUBCHEM_SHAPE_MULTIPOLES>
381.25
16.89
1.53
0.99
1.37
0.25
0.05
-1.51
1.6
-1.61
-0.02
0.66
-0.01
1.58

> <PUBCHEM_SHAPE_SELFOVERLAP>
769.452

> <PUBCHEM_SHAPE_VOLUME>
226

> <PUBCHEM_COORDINATE_TYPE>
2
5
10

$$$$

