10741
  -OEChem-06261204542D

 25 25  0     0  0  0  0  0  0999 V2000
    2.8660    1.4050    0.0000 O   0  0  0  0  0  0  0  0  0  0  0  0
    6.3301    1.4050    0.0000 O   0  0  0  0  0  0  0  0  0  0  0  0
    4.5981    2.4050    0.0000 O   0  0  0  0  0  0  0  0  0  0  0  0
    3.7320   -2.0950    0.0000 O   0  0  0  0  0  0  0  0  0  0  0  0
    4.5981   -0.5950    0.0000 C   0  0  0  0  0  0  0  0  0  0  0  0
    3.7320    0.9050    0.0000 C   0  0  0  0  0  0  0  0  0  0  0  0
    5.4641    0.9050    0.0000 C   0  0  0  0  0  0  0  0  0  0  0  0
    5.4641   -0.0950    0.0000 C   0  0  0  0  0  0  0  0  0  0  0  0
    3.7320   -0.0950    0.0000 C   0  0  0  0  0  0  0  0  0  0  0  0
    4.5981    1.4050    0.0000 C   0  0  0  0  0  0  0  0  0  0  0  0
    4.5981   -1.5950    0.0000 C   0  0  0  0  0  0  0  0  0  0  0  0
    2.0000    0.9050    0.0000 C   0  0  0  0  0  0  0  0  0  0  0  0
    7.1962    0.9050    0.0000 C   0  0  0  0  0  0  0  0  0  0  0  0
    6.0010   -0.4050    0.0000 H   0  0  0  0  0  0  0  0  0  0  0  0
    3.1951   -0.4050    0.0000 H   0  0  0  0  0  0  0  0  0  0  0  0
    4.8101   -2.1776    0.0000 H   0  0  0  0  0  0  0  0  0  0  0  0
    5.2087   -1.4873    0.0000 H   0  0  0  0  0  0  0  0  0  0  0  0
    5.1350    2.7150    0.0000 H   0  0  0  0  0  0  0  0  0  0  0  0
    1.6900    1.4419    0.0000 H   0  0  0  0  0  0  0  0  0  0  0  0
    1.4631    0.5950    0.0000 H   0  0  0  0  0  0  0  0  0  0  0  0
    2.3100    0.3681    0.0000 H   0  0  0  0  0  0  0  0  0  0  0  0
    6.8862    0.3681    0.0000 H   0  0  0  0  0  0  0  0  0  0  0  0
    7.7331    0.5950    0.0000 H   0  0  0  0  0  0  0  0  0  0  0  0
    7.5062    1.4419    0.0000 H   0  0  0  0  0  0  0  0  0  0  0  0
    3.7320   -2.7150    0.0000 H   0  0  0  0  0  0  0  0  0  0  0  0
  1  6  1  0  0  0  0
  1 12  1  0  0  0  0
  2  7  1  0  0  0  0
  2 13  1  0  0  0  0
  3 10  1  0  0  0  0
  3 18  1  0  0  0  0
  4 11  1  0  0  0  0
  4 25  1  0  0  0  0
  5  8  2  0  0  0  0
  5  9  1  0  0  0  0
  5 11  1  0  0  0  0
  6  9  2  0  0  0  0
  6 10  1  0  0  0  0
  7  8  1  0  0  0  0
  7 10  2  0  0  0  0
  8 14  1  0  0  0  0
  9 15  1  0  0  0  0
 11 16  1  0  0  0  0
 11 17  1  0  0  0  0
 12 19  1  0  0  0  0
 12 20  1  0  0  0  0
 12 21  1  0  0  0  0
 13 22  1  0  0  0  0
 13 23  1  0  0  0  0
 13 24  1  0  0  0  0
M  END
> <PUBCHEM_COMPOUND_CID>
10741

> <PUBCHEM_COMPOUND_CANONICALIZED>
1

> <PUBCHEM_CACTVS_COMPLEXITY>
137

> <PUBCHEM_CACTVS_HBOND_ACCEPTOR>
4

> <PUBCHEM_CACTVS_HBOND_DONOR>
2

> <PUBCHEM_CACTVS_ROTATABLE_BOND>
3

> <PUBCHEM_CACTVS_SUBSKEYS>
AAADccBwOAAAAAAAAAAAAAAAAAAAAAAAAAAwAAAAAAAAAAABAAAAGgAACAAADASgmAIyBoAABgCAAiBCAAACCAAgIAAAiAAGiIgNNyKGMRqAcCMlwBULuAfA4DwOIAABCAAAQABAAAIQAACAAAAAAAAAAA==

> <PUBCHEM_IUPAC_OPENEYE_NAME>
4-(hydroxymethyl)-2,6-dimethoxy-phenol

> <PUBCHEM_IUPAC_CAS_NAME>
4-(hydroxymethyl)-2,6-dimethoxyphenol

> <PUBCHEM_IUPAC_NAME>
4-(hydroxymethyl)-2,6-dimethoxyphenol

> <PUBCHEM_IUPAC_SYSTEMATIC_NAME>
4-(hydroxymethyl)-2,6-dimethoxy-phenol

> <PUBCHEM_IUPAC_TRADITIONAL_NAME>
2,6-dimethoxy-4-methylol-phenol

> <PUBCHEM_IUPAC_INCHI>
InChI=1S/C9H12O4/c1-12-7-3-6(5-10)4-8(13-2)9(7)11/h3-4,10-11H,5H2,1-2H3

> <PUBCHEM_IUPAC_INCHIKEY>
LUOAEJWSKPQLJD-UHFFFAOYSA-N

> <PUBCHEM_XLOGP3_AA>
0.6

> <PUBCHEM_EXACT_MASS>
184.073559

> <PUBCHEM_MOLECULAR_FORMULA>
C9H12O4

> <PUBCHEM_MOLECULAR_WEIGHT>
184.18918

> <PUBCHEM_OPENEYE_CAN_SMILES>
COC1=CC(=CC(=C1O)OC)CO

> <PUBCHEM_OPENEYE_ISO_SMILES>
COC1=CC(=CC(=C1O)OC)CO

> <PUBCHEM_CACTVS_TPSA>
58.9

> <PUBCHEM_MONOISOTOPIC_WEIGHT>
184.073559

> <PUBCHEM_TOTAL_CHARGE>
0

> <PUBCHEM_HEAVY_ATOM_COUNT>
13

> <PUBCHEM_ATOM_DEF_STEREO_COUNT>
0

> <PUBCHEM_ATOM_UDEF_STEREO_COUNT>
0

> <PUBCHEM_BOND_DEF_STEREO_COUNT>
0

> <PUBCHEM_BOND_UDEF_STEREO_COUNT>
0

> <PUBCHEM_ISOTOPIC_ATOM_COUNT>
0

> <PUBCHEM_COMPONENT_COUNT>
1

> <PUBCHEM_CACTVS_TAUTO_COUNT>
2

> <PUBCHEM_COORDINATE_TYPE>
1
5
255

> <PUBCHEM_BONDANNOTATIONS>
5  8  8
5  9  8
6  10  8
6  9  8
7  10  8
7  8  8

$$$$

