12263
  -OEChem-06261206443D

 14 13  0     0  0  0  0  0  0999 V2000
    1.4126   -1.2387    0.0021 O   0  0  0  0  0  0  0  0  0  0  0  0
   -1.4128   -1.2388   -0.0045 O   0  0  0  0  0  0  0  0  0  0  0  0
   -0.0001    0.6228    0.0038 N   0  0  0  0  0  0  0  0  0  0  0  0
    1.2341   -0.0239    0.0049 C   0  0  0  0  0  0  0  0  0  0  0  0
   -1.2342   -0.0240   -0.0009 C   0  0  0  0  0  0  0  0  0  0  0  0
    2.3810    0.9511   -0.0062 C   0  0  0  0  0  0  0  0  0  0  0  0
   -2.3805    0.9515    0.0007 C   0  0  0  0  0  0  0  0  0  0  0  0
   -0.0002    1.6402    0.0040 H   0  0  0  0  0  0  0  0  0  0  0  0
    3.3262    0.4099    0.0910 H   0  0  0  0  0  0  0  0  0  0  0  0
    2.3822    1.5068   -0.9480 H   0  0  0  0  0  0  0  0  0  0  0  0
    2.2873    1.6495    0.8303 H   0  0  0  0  0  0  0  0  0  0  0  0
   -2.3264    1.5897   -0.8857 H   0  0  0  0  0  0  0  0  0  0  0  0
   -2.3386    1.5714    0.9008 H   0  0  0  0  0  0  0  0  0  0  0  0
   -3.3287    0.4071   -0.0116 H   0  0  0  0  0  0  0  0  0  0  0  0
  1  4  2  0  0  0  0
  2  5  2  0  0  0  0
  3  4  1  0  0  0  0
  3  5  1  0  0  0  0
  3  8  1  0  0  0  0
  4  6  1  0  0  0  0
  5  7  1  0  0  0  0
  6  9  1  0  0  0  0
  6 10  1  0  0  0  0
  6 11  1  0  0  0  0
  7 12  1  0  0  0  0
  7 13  1  0  0  0  0
  7 14  1  0  0  0  0
M  END
> <PUBCHEM_COMPOUND_CID>
12263

> <PUBCHEM_CONFORMER_RMSD>
0.4

> <PUBCHEM_CONFORMER_DIVERSEORDER>
1
2

> <PUBCHEM_MMFF94_PARTIAL_CHARGES>
8
1 -0.57
2 -0.57
3 -0.49
4 0.57
5 0.57
6 0.06
7 0.06
8 0.37

> <PUBCHEM_EFFECTIVE_ROTOR_COUNT>
2

> <PUBCHEM_PHARMACOPHORE_FEATURES>
3
1 1 acceptor
1 2 acceptor
1 3 donor

> <PUBCHEM_HEAVY_ATOM_COUNT>
7

> <PUBCHEM_ATOM_DEF_STEREO_COUNT>
0

> <PUBCHEM_ATOM_UDEF_STEREO_COUNT>
0

> <PUBCHEM_BOND_DEF_STEREO_COUNT>
0

> <PUBCHEM_BOND_UDEF_STEREO_COUNT>
0

> <PUBCHEM_ISOTOPIC_ATOM_COUNT>
0

> <PUBCHEM_COMPONENT_COUNT>
1

> <PUBCHEM_CACTVS_TAUTO_COUNT>
2

> <PUBCHEM_CONFORMER_ID>
00002FE700000001

> <PUBCHEM_MMFF94_ENERGY>
10.4859

> <PUBCHEM_FEATURE_SELFOVERLAP>
15.226

> <PUBCHEM_SHAPE_FINGERPRINT>
14390081 3 18260833674176795672
20096714 4 18411136965174944273
21040471 1 18410575097553301025
23552423 10 18343300383475821926
24536 1 18338813263547996515
29004967 10 15410896275137921780
5460574 1 9223230749821791553

> <PUBCHEM_SHAPE_MULTIPOLES>
127.34
3.36
1.26
0.58
0
0.22
0
-0.94
0
0
0
0
-0.03
0

> <PUBCHEM_SHAPE_SELFOVERLAP>
234.592

> <PUBCHEM_SHAPE_VOLUME>
80.6

> <PUBCHEM_COORDINATE_TYPE>
2
5
10

$$$$

