12864
  -OEChem-06261207283D

 32 33  0     0  0  0  0  0  0999 V2000
    0.9078   -2.4571    0.0083 O   0  0  0  0  0  0  0  0  0  0  0  0
   -3.4151   -1.0198   -0.0877 O   0  0  0  0  0  0  0  0  0  0  0  0
   -1.1551    2.4963   -0.5407 O   0  0  0  0  0  0  0  0  0  0  0  0
   -1.3724    0.2190   -0.0411 N   0  0  0  0  0  0  0  0  0  0  0  0
   -1.3541   -2.0378   -0.0427 N   0  0  0  0  0  0  0  0  0  0  0  0
    0.0679   -0.1472   -0.0093 C   0  0  0  0  0  0  0  0  0  0  0  0
    0.8011    0.3190   -1.2811 C   0  0  0  0  0  0  0  0  0  0  0  0
    0.7437    0.3177    1.2944 C   0  0  0  0  0  0  0  0  0  0  0  0
    2.9164    0.7380    0.0549 C   0  0  0  0  0  0  0  0  0  0  0  0
    2.3179    0.1344   -1.2193 C   0  0  0  0  0  0  0  0  0  0  0  0
    2.2616    0.1325    1.3002 C   0  0  0  0  0  0  0  0  0  0  0  0
   -0.0368   -1.6793   -0.0125 C   0  0  0  0  0  0  0  0  0  0  0  0
    4.4296    0.5291    0.0885 C   0  0  0  0  0  0  0  0  0  0  0  0
   -2.1930   -0.9494   -0.0607 C   0  0  0  0  0  0  0  0  0  0  0  0
   -1.7935    1.5633   -0.0494 C   0  0  0  0  0  0  0  0  0  0  0  0
   -3.1261    1.8413    0.5982 C   0  0  0  0  0  0  0  0  0  0  0  0
    0.6240    1.3810   -1.4708 H   0  0  0  0  0  0  0  0  0  0  0  0
    0.4134   -0.2107   -2.1610 H   0  0  0  0  0  0  0  0  0  0  0  0
    0.3155   -0.2073    2.1580 H   0  0  0  0  0  0  0  0  0  0  0  0
    0.5343    1.3833    1.4541 H   0  0  0  0  0  0  0  0  0  0  0  0
    2.7256    1.8195    0.0514 H   0  0  0  0  0  0  0  0  0  0  0  0
    2.5654   -0.9319   -1.2830 H   0  0  0  0  0  0  0  0  0  0  0  0
    2.7687    0.6064   -2.1012 H   0  0  0  0  0  0  0  0  0  0  0  0
    2.6718    0.6046    2.2015 H   0  0  0  0  0  0  0  0  0  0  0  0
    2.5061   -0.9337    1.3740 H   0  0  0  0  0  0  0  0  0  0  0  0
    4.8648    0.9859    0.9836 H   0  0  0  0  0  0  0  0  0  0  0  0
    4.6852   -0.5360    0.0935 H   0  0  0  0  0  0  0  0  0  0  0  0
    4.9043    0.9872   -0.7855 H   0  0  0  0  0  0  0  0  0  0  0  0
   -1.6780   -2.9983   -0.0506 H   0  0  0  0  0  0  0  0  0  0  0  0
   -3.9271    1.6633   -0.1237 H   0  0  0  0  0  0  0  0  0  0  0  0
   -3.1623    2.8854    0.9227 H   0  0  0  0  0  0  0  0  0  0  0  0
   -3.2693    1.2078    1.4778 H   0  0  0  0  0  0  0  0  0  0  0  0
  1 12  2  0  0  0  0
  2 14  2  0  0  0  0
  3 15  2  0  0  0  0
  4  6  1  0  0  0  0
  4 14  1  0  0  0  0
  4 15  1  0  0  0  0
  5 12  1  0  0  0  0
  5 14  1  0  0  0  0
  5 29  1  0  0  0  0
  6  7  1  0  0  0  0
  6  8  1  0  0  0  0
  6 12  1  0  0  0  0
  7 10  1  0  0  0  0
  7 17  1  0  0  0  0
  7 18  1  0  0  0  0
  8 11  1  0  0  0  0
  8 19  1  0  0  0  0
  8 20  1  0  0  0  0
  9 10  1  0  0  0  0
  9 11  1  0  0  0  0
  9 13  1  0  0  0  0
  9 21  1  0  0  0  0
 10 22  1  0  0  0  0
 10 23  1  0  0  0  0
 11 24  1  0  0  0  0
 11 25  1  0  0  0  0
 13 26  1  0  0  0  0
 13 27  1  0  0  0  0
 13 28  1  0  0  0  0
 15 16  1  0  0  0  0
 16 30  1  0  0  0  0
 16 31  1  0  0  0  0
 16 32  1  0  0  0  0
M  END
> <PUBCHEM_COMPOUND_CID>
12864

> <PUBCHEM_CONFORMER_RMSD>
0.6

> <PUBCHEM_CONFORMER_DIVERSEORDER>
1
2

> <PUBCHEM_MMFF94_PARTIAL_CHARGES>
11
1 -0.57
12 0.57
14 0.69
15 0.57
16 0.06
2 -0.57
29 0.37
3 -0.57
4 -0.42
5 -0.49
6 0.36

> <PUBCHEM_EFFECTIVE_ROTOR_COUNT>
2.4

> <PUBCHEM_PHARMACOPHORE_FEATURES>
6
1 1 acceptor
1 2 acceptor
1 3 acceptor
1 5 donor
5 4 5 6 12 14 rings
6 6 7 8 9 10 11 rings

> <PUBCHEM_HEAVY_ATOM_COUNT>
16

> <PUBCHEM_ATOM_DEF_STEREO_COUNT>
0

> <PUBCHEM_ATOM_UDEF_STEREO_COUNT>
0

> <PUBCHEM_BOND_DEF_STEREO_COUNT>
0

> <PUBCHEM_BOND_UDEF_STEREO_COUNT>
0

> <PUBCHEM_ISOTOPIC_ATOM_COUNT>
0

> <PUBCHEM_COMPONENT_COUNT>
1

> <PUBCHEM_CACTVS_TAUTO_COUNT>
3

> <PUBCHEM_CONFORMER_ID>
0000324000000001

> <PUBCHEM_MMFF94_ENERGY>
36.9617

> <PUBCHEM_FEATURE_SELFOVERLAP>
30.451

> <PUBCHEM_SHAPE_FINGERPRINT>
12138202 97 18040156218904417892
12423570 1 9699616320170645896
12491281 212 18272927220103741080
13140716 1 17978502045265107243
13380535 21 18263075681733662163
13464514 151 17606391305372046440
13581323 91 18340209596566523486
13839132 238 18261392290560696524
14614273 12 18343309192738498525
14817 1 18117861909737847278
14993402 34 17988370264876453750
15219456 202 17822284712842761084
15775835 57 18411416258382394704
16945 1 18338510846337384223
18186145 218 17968924405491386748
20510252 161 18334292041701751720
20511035 2 17974306609172076255
21501502 16 18265059200594424307
22112679 90 18131060502835961901
22344851 341 18266734869047264450
22802520 49 18115011034710521140
23236772 104 17846783991967131825
2334 1 18338517546903077863
23402539 116 18263090932962265375
23557571 272 18188198819850320740
23559900 14 18114178671187921918
25 1 17677328458290559400
2748010 2 18267293412817595991
276578 36 18192138511456211361
305870 269 18270119153147446010
3286 77 16516813537324349131
43471831 8 18343024410526641754
474 4 17057799608553565596
5084963 1 18040992899897745136
53812653 166 18260265291136957937
53812653 8 18341616988144779266
6333449 129 18408041814368383301
7364860 26 18046343308062240486
77492 1 17703793583096347732
81228 2 18265620879200388515

> <PUBCHEM_SHAPE_MULTIPOLES>
301.7
5.37
2.18
1.07
2.31
0.32
-0.03
-1.65
-0.34
-1.64
0.06
0.57
-0.18
-0.1

> <PUBCHEM_SHAPE_SELFOVERLAP>
629.362

> <PUBCHEM_SHAPE_VOLUME>
170.2

> <PUBCHEM_COORDINATE_TYPE>
2
5
10

$$$$

