4413
  -OEChem-06261200063D

 43 45  0     0  0  0  0  0  0999 V2000
    0.5434    0.1596    0.4734 O   0  0  0  0  0  0  0  0  0  0  0  0
    0.6532    0.0837   -1.8534 O   0  0  0  0  0  0  0  0  0  0  0  0
   -8.1471   -1.0575   -0.0121 N   0  0  0  0  0  0  0  0  0  0  0  0
   -7.7521    1.2447   -0.0812 N   0  0  0  0  0  0  0  0  0  0  0  0
    6.7384   -0.7398   -0.0717 N   0  0  0  0  0  0  0  0  0  0  0  0
    8.7882    0.0312    0.7405 N   0  0  0  0  0  0  0  0  0  0  0  0
    6.9671    1.3624    1.0857 N   0  0  0  0  0  0  0  0  0  0  0  0
   -3.5767    0.7399    0.1976 C   0  0  0  0  0  0  0  0  0  0  0  0
   -3.0507   -0.5715    0.2804 C   0  0  0  0  0  0  0  0  0  0  0  0
   -4.9669    0.9177    0.1057 C   0  0  0  0  0  0  0  0  0  0  0  0
   -1.6606   -0.7494    0.3721 C   0  0  0  0  0  0  0  0  0  0  0  0
   -5.8261   -0.1814    0.0957 C   0  0  0  0  0  0  0  0  0  0  0  0
   -3.9303   -1.6662    0.2689 C   0  0  0  0  0  0  0  0  0  0  0  0
   -2.6971    1.8345    0.2090 C   0  0  0  0  0  0  0  0  0  0  0  0
   -0.8015    0.3498    0.3822 C   0  0  0  0  0  0  0  0  0  0  0  0
   -5.3087   -1.4709    0.1772 C   0  0  0  0  0  0  0  0  0  0  0  0
   -1.3188    1.6392    0.3008 C   0  0  0  0  0  0  0  0  0  0  0  0
   -7.2633    0.0199    0.0002 C   0  0  0  0  0  0  0  0  0  0  0  0
    2.6512   -0.1734   -0.5776 C   0  0  0  0  0  0  0  0  0  0  0  0
    1.1911    0.0307   -0.7575 C   0  0  0  0  0  0  0  0  0  0  0  0
    3.5137    0.2931   -1.5482 C   0  0  0  0  0  0  0  0  0  0  0  0
    3.0993   -0.8211    0.5552 C   0  0  0  0  0  0  0  0  0  0  0  0
    5.3637   -0.5485   -0.2418 C   0  0  0  0  0  0  0  0  0  0  0  0
    4.8851    0.1034   -1.3783 C   0  0  0  0  0  0  0  0  0  0  0  0
    4.4708   -1.0106    0.7250 C   0  0  0  0  0  0  0  0  0  0  0  0
    7.4345    0.1806    0.5524 C   0  0  0  0  0  0  0  0  0  0  0  0
   -5.3598    1.9308    0.0426 H   0  0  0  0  0  0  0  0  0  0  0  0
   -1.2407   -1.7517    0.4375 H   0  0  0  0  0  0  0  0  0  0  0  0
   -3.5473   -2.6828    0.3314 H   0  0  0  0  0  0  0  0  0  0  0  0
   -3.0786    2.8516    0.1465 H   0  0  0  0  0  0  0  0  0  0  0  0
   -5.9307   -2.3592    0.1733 H   0  0  0  0  0  0  0  0  0  0  0  0
   -0.6547    2.4994    0.3090 H   0  0  0  0  0  0  0  0  0  0  0  0
    3.1534    0.8053   -2.4353 H   0  0  0  0  0  0  0  0  0  0  0  0
    2.4235   -1.2013    1.3153 H   0  0  0  0  0  0  0  0  0  0  0  0
    5.5730    0.4676   -2.1370 H   0  0  0  0  0  0  0  0  0  0  0  0
    4.8339   -1.5227    1.6123 H   0  0  0  0  0  0  0  0  0  0  0  0
   -9.1467   -0.8966   -0.0809 H   0  0  0  0  0  0  0  0  0  0  0  0
   -7.8582   -2.0260    0.0459 H   0  0  0  0  0  0  0  0  0  0  0  0
   -8.7744    1.1801   -0.1420 H   0  0  0  0  0  0  0  0  0  0  0  0
    9.2765   -0.7906    0.4016 H   0  0  0  0  0  0  0  0  0  0  0  0
    9.3378    0.7356    1.2204 H   0  0  0  0  0  0  0  0  0  0  0  0
    7.5936    2.0091    1.5526 H   0  0  0  0  0  0  0  0  0  0  0  0
    5.9901    1.6283    1.0344 H   0  0  0  0  0  0  0  0  0  0  0  0
  1 15  1  0  0  0  0
  1 20  1  0  0  0  0
  2 20  2  0  0  0  0
  3 18  1  0  0  0  0
  3 37  1  0  0  0  0
  3 38  1  0  0  0  0
  4 18  2  0  0  0  0
  4 39  1  0  0  0  0
  5 23  1  0  0  0  0
  5 26  2  0  0  0  0
  6 26  1  0  0  0  0
  6 40  1  0  0  0  0
  6 41  1  0  0  0  0
  7 26  1  0  0  0  0
  7 42  1  0  0  0  0
  7 43  1  0  0  0  0
  8  9  2  0  0  0  0
  8 10  1  0  0  0  0
  8 14  1  0  0  0  0
  9 11  1  0  0  0  0
  9 13  1  0  0  0  0
 10 12  2  0  0  0  0
 10 27  1  0  0  0  0
 11 15  2  0  0  0  0
 11 28  1  0  0  0  0
 12 16  1  0  0  0  0
 12 18  1  0  0  0  0
 13 16  2  0  0  0  0
 13 29  1  0  0  0  0
 14 17  2  0  0  0  0
 14 30  1  0  0  0  0
 15 17  1  0  0  0  0
 16 31  1  0  0  0  0
 17 32  1  0  0  0  0
 19 20  1  0  0  0  0
 19 21  2  0  0  0  0
 19 22  1  0  0  0  0
 21 24  1  0  0  0  0
 21 33  1  0  0  0  0
 22 25  2  0  0  0  0
 22 34  1  0  0  0  0
 23 24  2  0  0  0  0
 23 25  1  0  0  0  0
 24 35  1  0  0  0  0
 25 36  1  0  0  0  0
M  END
> <PUBCHEM_COMPOUND_CID>
4413

> <PUBCHEM_CONFORMER_RMSD>
0.8

> <PUBCHEM_CONFORMER_DIVERSEORDER>
1
45
54
22
63
52
39
8
69
74
43
12
66
73
51
35
40
6
71
47
13
61
11
70
56
50
26
42
4
67
34
75
46
10
60
65
32
5
55
64
14
3
31
25
44
17
41
68
29
2
48
16
19
57
37
49
7
59
58
30
20
9
27
21
28
72
53
38
62
33
15
23
36
18
24

> <PUBCHEM_MMFF94_PARTIAL_CHARGES>
41
1 -0.23
10 -0.15
11 -0.15
12 0.09
13 -0.15
14 -0.15
15 0.08
16 -0.15
17 -0.15
18 0.41
19 0.09
2 -0.57
20 0.63
21 -0.15
22 -0.15
23 0.18
24 -0.15
25 -0.15
26 0.55
27 0.15
28 0.15
29 0.15
3 -0.85
30 0.15
31 0.15
32 0.15
33 0.15
34 0.15
35 0.15
36 0.15
37 0.4
38 0.4
39 0.4
4 -0.85
40 0.4
41 0.4
42 0.4
43 0.4
5 -0.63
6 -0.85
7 -0.85

> <PUBCHEM_EFFECTIVE_ROTOR_COUNT>
5

> <PUBCHEM_PHARMACOPHORE_FEATURES>
10
1 2 acceptor
1 3 donor
1 4 donor
1 6 donor
1 7 donor
3 3 4 18 cation
4 5 6 7 26 cation
6 19 21 22 23 24 25 rings
6 8 9 10 12 13 16 rings
6 8 9 11 14 15 17 rings

> <PUBCHEM_HEAVY_ATOM_COUNT>
26

> <PUBCHEM_ATOM_DEF_STEREO_COUNT>
0

> <PUBCHEM_ATOM_UDEF_STEREO_COUNT>
0

> <PUBCHEM_BOND_DEF_STEREO_COUNT>
0

> <PUBCHEM_BOND_UDEF_STEREO_COUNT>
0

> <PUBCHEM_ISOTOPIC_ATOM_COUNT>
0

> <PUBCHEM_COMPONENT_COUNT>
1

> <PUBCHEM_CACTVS_TAUTO_COUNT>
3

> <PUBCHEM_CONFORMER_ID>
0000113D00000001

> <PUBCHEM_MMFF94_ENERGY>
98.9801

> <PUBCHEM_FEATURE_SELFOVERLAP>
50.868

> <PUBCHEM_SHAPE_FINGERPRINT>
10 15 17967254187716100582
106641 1 17385726876424370566
10670039 82 10951780672414976295
11135926 11 17775292664220383163
11315181 36 17821727235242015115
11408170 108 16701468991518669426
11524674 6 16950284001586325303
11638347 137 18335701676661417866
12236239 1 17846493734415114951
12516196 113 18186800287839985472
12838862 33 18339657693269182399
13533116 47 18131071579662158834
13914758 101 16773801428180746461
14150022 121 16515958264050802593
14251764 18 17989486329091839102
14251764 46 17846497036675337826
15131766 46 15049450391062630886
15183329 4 16415482653451888891
15419008 47 17822015323672673600
15716309 27 17530685420031052686
15840311 113 18260830364033903092
17093844 174 18409164416541890881
18006028 8 18113337514184849785
20511986 3 18130799978746527154
21095086 128 7348892170098551396
21267235 1 18339919330672856075
22224240 67 16515406265646735254
23402539 116 18413668011410109359
23536379 177 17418372502535767375
23559900 14 18338519630062690361
249057 3 16988840558024439651
29717793 49 18202556298325047246
3004659 81 18202280295009849925
335352 9 18411140239190276677
34797466 226 17822006511063867404
4073 2 16773503370387936858
4325135 7 18273495680241701262
5283156 175 18202563999043010274
9663363 56 18259988172185428609

> <PUBCHEM_SHAPE_MULTIPOLES>
498.42
24.28
1.4
1.05
9.25
0.14
-0.35
-1.11
3.52
-1.54
0.22
1.51
0.1
0.07

> <PUBCHEM_SHAPE_SELFOVERLAP>
1097.619

> <PUBCHEM_SHAPE_VOLUME>
265.3

> <PUBCHEM_COORDINATE_TYPE>
2
5
10

$$$$

