17395282
  -OEChem-06241222493D

 35 36  0     0  0  0  0  0  0999 V2000
    0.9114   -2.0327   -1.2793 S   0  0  0  0  0  0  0  0  0  0  0  0
   -0.9388   -1.7734    1.0833 O   0  0  0  0  0  0  0  0  0  0  0  0
   -2.9647    0.3249    1.0577 N   0  0  0  0  0  0  0  0  0  0  0  0
    0.6422    0.6001   -1.1561 N   0  0  0  0  0  0  0  0  0  0  0  0
    4.1091   -2.2069    0.7208 N   0  0  0  0  0  0  0  0  0  0  0  0
   -2.6699   -0.5665    0.0594 C   0  0  0  0  0  0  0  0  0  0  0  0
   -1.4466   -1.4232    0.0206 C   0  0  0  0  0  0  0  0  0  0  0  0
   -0.8875   -1.8126   -1.3353 C   0  0  0  0  0  0  0  0  0  0  0  0
   -3.6898   -0.5173   -0.8650 C   0  0  0  0  0  0  0  0  0  0  0  0
   -4.1571    0.9429    0.7842 C   0  0  0  0  0  0  0  0  0  0  0  0
    2.9474    1.0740    0.3526 C   0  0  0  0  0  0  0  0  0  0  0  0
    1.4521   -0.4060   -0.7566 C   0  0  0  0  0  0  0  0  0  0  0  0
    2.6042   -0.2241   -0.0087 C   0  0  0  0  0  0  0  0  0  0  0  0
   -4.6308    0.4375   -0.4064 C   0  0  0  0  0  0  0  0  0  0  0  0
   -2.1536    0.5866    2.2264 C   0  0  0  0  0  0  0  0  0  0  0  0
    1.0081    1.8481   -0.7863 C   0  0  0  0  0  0  0  0  0  0  0  0
    2.1394    2.1355   -0.0397 C   0  0  0  0  0  0  0  0  0  0  0  0
    4.1713    1.3703    1.1585 C   0  0  0  0  0  0  0  0  0  0  0  0
    0.1177    2.9624   -1.2246 C   0  0  0  0  0  0  0  0  0  0  0  0
    3.4358   -1.3197    0.3944 C   0  0  0  0  0  0  0  0  0  0  0  0
   -1.1369   -1.0621   -2.0911 H   0  0  0  0  0  0  0  0  0  0  0  0
   -1.3491   -2.7596   -1.6318 H   0  0  0  0  0  0  0  0  0  0  0  0
   -3.7587   -1.1034   -1.7711 H   0  0  0  0  0  0  0  0  0  0  0  0
   -4.5722    1.6858    1.4519 H   0  0  0  0  0  0  0  0  0  0  0  0
   -5.5536    0.7253   -0.8900 H   0  0  0  0  0  0  0  0  0  0  0  0
   -2.1999   -0.2858    2.8826 H   0  0  0  0  0  0  0  0  0  0  0  0
   -1.1283    0.7897    1.9070 H   0  0  0  0  0  0  0  0  0  0  0  0
   -2.5463    1.4620    2.7510 H   0  0  0  0  0  0  0  0  0  0  0  0
    2.3815    3.1593    0.2273 H   0  0  0  0  0  0  0  0  0  0  0  0
    4.1204    0.8729    2.1329 H   0  0  0  0  0  0  0  0  0  0  0  0
    5.0708    1.0408    0.6278 H   0  0  0  0  0  0  0  0  0  0  0  0
    4.2839    2.4434    1.3494 H   0  0  0  0  0  0  0  0  0  0  0  0
    0.6685    3.6631   -1.8600 H   0  0  0  0  0  0  0  0  0  0  0  0
   -0.7335    2.5820   -1.7991 H   0  0  0  0  0  0  0  0  0  0  0  0
   -0.2759    3.4991   -0.3555 H   0  0  0  0  0  0  0  0  0  0  0  0
  1  8  1  0  0  0  0
  1 12  1  0  0  0  0
  2  7  2  0  0  0  0
  3  6  1  0  0  0  0
  3 10  1  0  0  0  0
  3 15  1  0  0  0  0
  4 12  1  0  0  0  0
  4 16  2  0  0  0  0
  5 20  3  0  0  0  0
  6  7  1  0  0  0  0
  6  9  2  0  0  0  0
  7  8  1  0  0  0  0
  8 21  1  0  0  0  0
  8 22  1  0  0  0  0
  9 14  1  0  0  0  0
  9 23  1  0  0  0  0
 10 14  2  0  0  0  0
 10 24  1  0  0  0  0
 11 13  1  0  0  0  0
 11 17  2  0  0  0  0
 11 18  1  0  0  0  0
 12 13  2  0  0  0  0
 13 20  1  0  0  0  0
 14 25  1  0  0  0  0
 15 26  1  0  0  0  0
 15 27  1  0  0  0  0
 15 28  1  0  0  0  0
 16 17  1  0  0  0  0
 16 19  1  0  0  0  0
 17 29  1  0  0  0  0
 18 30  1  0  0  0  0
 18 31  1  0  0  0  0
 18 32  1  0  0  0  0
 19 33  1  0  0  0  0
 19 34  1  0  0  0  0
 19 35  1  0  0  0  0
M  END
> <PUBCHEM_COMPOUND_CID>
17395282

> <PUBCHEM_CONFORMER_RMSD>
0.6

> <PUBCHEM_CONFORMER_DIVERSEORDER>
1
262
450
469
323
204
405
257
21
476
224
385
228
14
242
192
442
101
362
194
436
446
25
48
292
312
232
433
444
131
356
149
132
472
106
483
465
318
24
266
458
181
463
464
46
50
298
437
120
171
93
287
162
66
103
474
365
366
75
267
219
252
370
223
160
340
222
191
339
180
254
135
394
36
304
431
306
477
210
9
47
95
364
15
392
34
320
396
2
199
286
122
427
11
128
350
73
384
3
17
468
402
279
205
268
265
105
203
371
62
214
56
193
327
303
346
272
78
428
367
424
53
276
229
466
100
155
426
461
7
256
94
38
470
460
72
447
77
403
39
109
434
6
60
395
226
374
404
157
353
382
225
322
432
159
297
321
357
288
248
457
29
360
187
59
113
467
420
68
4
333
40
478
438
345
167
8
104
358
220
69
407
12
381
170
35
349
196
150
291
41
37
156
324
201
49
400
342
143
280
425
190
441
110
183
45
243
54
409
55
250
331
58
237
338
448
317
43
372
249
91
419
296
389
108
373
26
348
185
313
255
151
263
316
116
274
341
16
309
179
80
188
153
406
387
44
415
375
347
430
275
380
332
182
241
165
440
449
32
161
70
260
22
215
112
269
284
369
98
462
18
141
154
119
152
305
295
475
414
64
137
208
207
42
379
235
126
471
319
144
314
416
473
52
326
84
311
76
378
136
264
354
71
293
202
20
61
418
290
5
283
85
253
417
398
206
285
479
329
397
65
212
258
336
455
87
197
386
163
343
259
51
28
10
299
169
411
174
270
57
388
147
145
121
244
377
82
344
335
361
209
393
278
281
282
158
310
186
443
452
351
115
231
307
236
376
129
391
176
74
245
30
481
445
13
482
19
133
325
148
451
168
422
413
337
90
130
88
247
399
410
124
96
368
92
412
83
79
123
289
234
107
216
308
459
408
227
363
328
111
359
435
383
31
401
164
67
390
221
239
142
175
140
99
189
125
230
200
217
23
63
134
213
246
81
114
86
429
300
480
454
166
453
195
439
27
238
301
89
102
352
271
184
127
273
261
211
423
177
173
117
421
139
355
302
294
334
456
178
330
97
33
146
277
172
118
240
138
251
315
198
233
218

> <PUBCHEM_MMFF94_PARTIAL_CHARGES>
24
1 -0.33
10 -0.3
11 -0.14
12 0.41
13 0.07
14 -0.15
15 0.26
16 0.17
17 -0.15
18 0.14
19 0.14
2 -0.57
20 0.48
23 0.15
24 0.15
25 0.15
29 0.15
3 0.05
4 -0.62
5 -0.56
6 -0.24
7 0.59
8 0.29
9 -0.15

> <PUBCHEM_EFFECTIVE_ROTOR_COUNT>
4

> <PUBCHEM_PHARMACOPHORE_FEATURES>
6
1 2 acceptor
1 3 cation
1 4 acceptor
1 5 acceptor
5 3 6 9 10 14 rings
6 4 11 12 13 16 17 rings

> <PUBCHEM_HEAVY_ATOM_COUNT>
20

> <PUBCHEM_ATOM_DEF_STEREO_COUNT>
0

> <PUBCHEM_ATOM_UDEF_STEREO_COUNT>
0

> <PUBCHEM_BOND_DEF_STEREO_COUNT>
0

> <PUBCHEM_BOND_UDEF_STEREO_COUNT>
0

> <PUBCHEM_ISOTOPIC_ATOM_COUNT>
0

> <PUBCHEM_COMPONENT_COUNT>
1

> <PUBCHEM_CACTVS_TAUTO_COUNT>
2

> <PUBCHEM_CONFORMER_ID>
01096E5200000001

> <PUBCHEM_MMFF94_ENERGY>
40.286

> <PUBCHEM_FEATURE_SELFOVERLAP>
30.446

> <PUBCHEM_SHAPE_FINGERPRINT>
10062212 137 18186526492839871431
104564 63 17842842397521547120
11086676 242 18343304773380674508
11370993 70 18113904818707621049
11640471 11 17968370152582930783
12011746 2 18408316714018968620
12403259 327 17203325568530963945
12633257 1 17896593071528401400
13134695 92 18272367585664735908
13583140 156 18131067078916247067
14178342 30 18051707538037713946
14251739 40 18411143510895371327
14713325 29 15822645453000754804
14739800 52 17096390349358569968
14790565 3 17910953548682454732
17349148 13 18187365424269474543
17492 54 7420360421297768458
17492 89 18262800661861838951
18981168 100 17682074899816631335
192875 21 18187086173980204865
19784866 170 18270968925850158984
20715895 44 17971753526667920057
20739085 24 18411138048181930004
21665062 11 18340761572530629772
21731516 1 11383563217810772855
22749437 52 18113891663507389497
23184049 59 18410857667767790903
23419403 2 17030250588198705914
23557571 272 15574986231342792567
23559900 14 17168135741912520908
3323516 105 10375865281798863166
3472631 163 16515954956915597041
351380 180 18342745117751500389
474 4 18335412491827773971
6328613 192 18261667092013050780
9981440 41 17617952330672275376

> <PUBCHEM_SHAPE_MULTIPOLES>
394.63
7.95
2.71
1.52
2.6
0.35
-0.33
0.66
-2.47
-1.82
0.73
0.44
0.2
-0.53

> <PUBCHEM_SHAPE_SELFOVERLAP>
823.395

> <PUBCHEM_SHAPE_VOLUME>
226.7

> <PUBCHEM_COORDINATE_TYPE>
2
5
10

$$$$

