14032
  -OEChem-06241222412D

 30 29  0     0  0  0  0  0  0999 V2000
    3.7320    0.3840    0.0000 P   0  0  0  0  0  0  0  0  0  0  0  0
    5.4641    0.3840    0.0000 P   0  0  0  0  0  0  0  0  0  0  0  0
    4.5981    0.8840    0.0000 O   0  0  0  0  0  0  0  0  0  0  0  0
    6.3301    0.8840    0.0000 O   0  0  0  0  0  0  0  0  0  0  0  0
    5.4641   -0.6160    0.0000 O   0  0  0  0  0  0  0  0  0  0  0  0
    2.8660   -0.1160    0.0000 O   0  0  0  0  0  0  0  0  0  0  0  0
    3.2320    1.2500    0.0000 O   0  0  0  0  0  0  0  0  0  0  0  0
    4.2320   -0.4821    0.0000 O   0  0  0  0  0  0  0  0  0  0  0  0
    6.3301   -1.1160    0.0000 C   0  0  0  0  0  0  0  0  0  0  0  0
    7.1962    0.3840    0.0000 C   0  0  0  0  0  0  0  0  0  0  0  0
    8.0622    0.8840    0.0000 C   0  0  0  0  0  0  0  0  0  0  0  0
    6.3301   -2.1160    0.0000 C   0  0  0  0  0  0  0  0  0  0  0  0
    3.7320    2.1160    0.0000 C   0  0  0  0  0  0  0  0  0  0  0  0
    2.0000    0.3840    0.0000 C   0  0  0  0  0  0  0  0  0  0  0  0
    6.9407   -1.2237    0.0000 H   0  0  0  0  0  0  0  0  0  0  0  0
    6.5422   -0.5334    0.0000 H   0  0  0  0  0  0  0  0  0  0  0  0
    6.7976   -0.0910    0.0000 H   0  0  0  0  0  0  0  0  0  0  0  0
    7.5947   -0.0910    0.0000 H   0  0  0  0  0  0  0  0  0  0  0  0
    8.3722    0.3470    0.0000 H   0  0  0  0  0  0  0  0  0  0  0  0
    8.5991    1.1940    0.0000 H   0  0  0  0  0  0  0  0  0  0  0  0
    7.7522    1.4209    0.0000 H   0  0  0  0  0  0  0  0  0  0  0  0
    5.7101   -2.1160    0.0000 H   0  0  0  0  0  0  0  0  0  0  0  0
    6.3301   -2.7360    0.0000 H   0  0  0  0  0  0  0  0  0  0  0  0
    6.9501   -2.1160    0.0000 H   0  0  0  0  0  0  0  0  0  0  0  0
    4.2690    1.8060    0.0000 H   0  0  0  0  0  0  0  0  0  0  0  0
    4.0420    2.6530    0.0000 H   0  0  0  0  0  0  0  0  0  0  0  0
    3.1951    2.4260    0.0000 H   0  0  0  0  0  0  0  0  0  0  0  0
    2.3100    0.9209    0.0000 H   0  0  0  0  0  0  0  0  0  0  0  0
    1.4631    0.6940    0.0000 H   0  0  0  0  0  0  0  0  0  0  0  0
    1.6900   -0.1530    0.0000 H   0  0  0  0  0  0  0  0  0  0  0  0
  1  3  1  0  0  0  0
  1  6  1  0  0  0  0
  1  7  1  0  0  0  0
  1  8  2  0  0  0  0
  2  3  1  0  0  0  0
  2  4  1  0  0  0  0
  2  5  1  0  0  0  0
  4 10  1  0  0  0  0
  5  9  1  0  0  0  0
  6 14  1  0  0  0  0
  7 13  1  0  0  0  0
  9 12  1  0  0  0  0
  9 15  1  0  0  0  0
  9 16  1  0  0  0  0
 10 11  1  0  0  0  0
 10 17  1  0  0  0  0
 10 18  1  0  0  0  0
 11 19  1  0  0  0  0
 11 20  1  0  0  0  0
 11 21  1  0  0  0  0
 12 22  1  0  0  0  0
 12 23  1  0  0  0  0
 12 24  1  0  0  0  0
 13 25  1  0  0  0  0
 13 26  1  0  0  0  0
 13 27  1  0  0  0  0
 14 28  1  0  0  0  0
 14 29  1  0  0  0  0
 14 30  1  0  0  0  0
M  END
> <PUBCHEM_COMPOUND_CID>
14032

> <PUBCHEM_COMPOUND_CANONICALIZED>
1

> <PUBCHEM_CACTVS_COMPLEXITY>
173

> <PUBCHEM_CACTVS_HBOND_ACCEPTOR>
6

> <PUBCHEM_CACTVS_HBOND_DONOR>
0

> <PUBCHEM_CACTVS_ROTATABLE_BOND>
8

> <PUBCHEM_CACTVS_SUBSKEYS>
AAADceBgOAMAAAAAAAAAAAAAAAAAAAAAAAAAAAAAAAAAAAAAAAAAGgAAACAAAACggAICAAAAARAAQAAAAIAAAAAAAAAAAAAAAAAAAAAAAAAAAAAAAAAAAAAAAAAAAAAAAAAAAAAAAAAAAAAAAAAAAAAAAA==

> <PUBCHEM_IUPAC_OPENEYE_NAME>
diethoxyphosphanyl dimethyl phosphate

> <PUBCHEM_IUPAC_CAS_NAME>
phosphoric acid diethoxyphosphino dimethyl ester

> <PUBCHEM_IUPAC_NAME>
diethoxyphosphanyl dimethyl phosphate

> <PUBCHEM_IUPAC_SYSTEMATIC_NAME>
diethoxyphosphanyl dimethyl phosphate

> <PUBCHEM_IUPAC_TRADITIONAL_NAME>
phosphoric acid diethoxyphosphino dimethyl ester

> <PUBCHEM_IUPAC_INCHI>
InChI=1S/C6H16O6P2/c1-5-10-13(11-6-2)12-14(7,8-3)9-4/h5-6H2,1-4H3

> <PUBCHEM_IUPAC_INCHIKEY>
CNVLYZNEWMHIOR-UHFFFAOYSA-N

> <PUBCHEM_XLOGP3_AA>
0.2

> <PUBCHEM_EXACT_MASS>
246.042211

> <PUBCHEM_MOLECULAR_FORMULA>
C6H16O6P2

> <PUBCHEM_MOLECULAR_WEIGHT>
246.135164

> <PUBCHEM_OPENEYE_CAN_SMILES>
CCOP(OCC)OP(=O)(OC)OC

> <PUBCHEM_OPENEYE_ISO_SMILES>
CCOP(OCC)OP(=O)(OC)OC

> <PUBCHEM_CACTVS_TPSA>
63.2

> <PUBCHEM_MONOISOTOPIC_WEIGHT>
246.042211

> <PUBCHEM_TOTAL_CHARGE>
0

> <PUBCHEM_HEAVY_ATOM_COUNT>
14

> <PUBCHEM_ATOM_DEF_STEREO_COUNT>
0

> <PUBCHEM_ATOM_UDEF_STEREO_COUNT>
0

> <PUBCHEM_BOND_DEF_STEREO_COUNT>
0

> <PUBCHEM_BOND_UDEF_STEREO_COUNT>
0

> <PUBCHEM_ISOTOPIC_ATOM_COUNT>
0

> <PUBCHEM_COMPONENT_COUNT>
1

> <PUBCHEM_CACTVS_TAUTO_COUNT>
1

> <PUBCHEM_COORDINATE_TYPE>
1
5
255

$$$$

