8245
  -OEChem-06261202413D

 62 66  0     0  0  0  0  0  0999 V2000
    3.2952    1.4017    1.1999 O   0  0  0  0  0  0  0  0  0  0  0  0
   -3.2929   -1.4157    1.1945 O   0  0  0  0  0  0  0  0  0  0  0  0
   11.3604   -0.3560   -0.5862 N   0  0  0  0  0  0  0  0  0  0  0  0
  -11.3640    0.3842   -0.5831 N   0  0  0  0  0  0  0  0  0  0  0  0
    9.1522   -1.0510   -0.3643 N   0  0  0  0  0  0  0  0  0  0  0  0
   -9.1613    1.0444   -0.3592 N   0  0  0  0  0  0  0  0  0  0  0  0
    9.7648    1.2561   -0.5107 N   0  0  0  0  0  0  0  0  0  0  0  0
   -9.7834   -1.2428   -0.5177 N   0  0  0  0  0  0  0  0  0  0  0  0
    3.6022   -0.6583    0.1089 N   0  0  0  0  0  0  0  0  0  0  0  0
   -3.5790    0.6483    0.1159 N   0  0  0  0  0  0  0  0  0  0  0  0
   12.1656    0.8214   -0.7015 C   0  0  0  0  0  0  0  0  0  0  0  0
  -12.1802   -0.7850   -0.7054 C   0  0  0  0  0  0  0  0  0  0  0  0
   11.0958    1.9199   -0.6551 C   0  0  0  0  0  0  0  0  0  0  0  0
  -11.1206   -1.8935   -0.6659 C   0  0  0  0  0  0  0  0  0  0  0  0
   10.0422   -0.0256   -0.4840 C   0  0  0  0  0  0  0  0  0  0  0  0
  -10.0490    0.0412   -0.4832 C   0  0  0  0  0  0  0  0  0  0  0  0
    7.7617   -0.9525   -0.2451 C   0  0  0  0  0  0  0  0  0  0  0  0
   -7.7597    0.9448   -0.2392 C   0  0  0  0  0  0  0  0  0  0  0  0
    4.9889   -0.7565   -0.0088 C   0  0  0  0  0  0  0  0  0  0  0  0
   -4.9870    0.7483   -0.0034 C   0  0  0  0  0  0  0  0  0  0  0  0
    7.1909    0.1641    0.3658 C   0  0  0  0  0  0  0  0  0  0  0  0
   -7.1888   -0.1748    0.3660 C   0  0  0  0  0  0  0  0  0  0  0  0
    6.9459   -1.9712   -0.7378 C   0  0  0  0  0  0  0  0  0  0  0  0
   -6.9442    1.9662   -0.7265 C   0  0  0  0  0  0  0  0  0  0  0  0
    5.8046    0.2622    0.4839 C   0  0  0  0  0  0  0  0  0  0  0  0
   -5.8025   -0.2731    0.4838 C   0  0  0  0  0  0  0  0  0  0  0  0
    5.5596   -1.8732   -0.6197 C   0  0  0  0  0  0  0  0  0  0  0  0
   -5.5578    1.8680   -0.6085 C   0  0  0  0  0  0  0  0  0  0  0  0
    1.3834    0.1801    0.6857 C   0  0  0  0  0  0  0  0  0  0  0  0
   -1.3813   -0.1916    0.6860 C   0  0  0  0  0  0  0  0  0  0  0  0
    2.8567    0.3782    0.6861 C   0  0  0  0  0  0  0  0  0  0  0  0
   -2.8224   -0.3855    0.6856 C   0  0  0  0  0  0  0  0  0  0  0  0
    0.5312    1.2845    0.6888 C   0  0  0  0  0  0  0  0  0  0  0  0
   -0.8511    1.0986    0.6889 C   0  0  0  0  0  0  0  0  0  0  0  0
    0.8532   -1.1101    0.6827 C   0  0  0  0  0  0  0  0  0  0  0  0
   -0.5291   -1.2959    0.6829 C   0  0  0  0  0  0  0  0  0  0  0  0
   12.7186    0.8385   -1.6450 H   0  0  0  0  0  0  0  0  0  0  0  0
   12.8680    0.9095    0.1324 H   0  0  0  0  0  0  0  0  0  0  0  0
  -12.8832   -0.8717    0.1280 H   0  0  0  0  0  0  0  0  0  0  0  0
  -12.7334   -0.7912   -1.6489 H   0  0  0  0  0  0  0  0  0  0  0  0
   11.2613    2.5927    0.1930 H   0  0  0  0  0  0  0  0  0  0  0  0
   11.1070    2.5170   -1.5731 H   0  0  0  0  0  0  0  0  0  0  0  0
  -11.1374   -2.4849   -1.5876 H   0  0  0  0  0  0  0  0  0  0  0  0
  -11.2921   -2.5699    0.1781 H   0  0  0  0  0  0  0  0  0  0  0  0
   11.7370   -1.2957   -0.5782 H   0  0  0  0  0  0  0  0  0  0  0  0
  -11.7322    1.3272   -0.5693 H   0  0  0  0  0  0  0  0  0  0  0  0
    9.4987   -1.9920   -0.5275 H   0  0  0  0  0  0  0  0  0  0  0  0
   -9.4970    1.9909   -0.5141 H   0  0  0  0  0  0  0  0  0  0  0  0
    7.7852    0.9562    0.8088 H   0  0  0  0  0  0  0  0  0  0  0  0
   -7.7846   -0.9701    0.8013 H   0  0  0  0  0  0  0  0  0  0  0  0
    7.3779   -2.8461   -1.2168 H   0  0  0  0  0  0  0  0  0  0  0  0
   -7.3764    2.8434   -1.2011 H   0  0  0  0  0  0  0  0  0  0  0  0
    5.4396    1.1506    0.9794 H   0  0  0  0  0  0  0  0  0  0  0  0
   -5.4356   -1.1637    0.9738 H   0  0  0  0  0  0  0  0  0  0  0  0
    4.9363   -2.6746   -1.0083 H   0  0  0  0  0  0  0  0  0  0  0  0
   -4.9341    2.6711   -0.9927 H   0  0  0  0  0  0  0  0  0  0  0  0
    3.0979   -1.4313   -0.3161 H   0  0  0  0  0  0  0  0  0  0  0  0
   -3.0846    1.4276   -0.3097 H   0  0  0  0  0  0  0  0  0  0  0  0
    0.9251    2.2975    0.6943 H   0  0  0  0  0  0  0  0  0  0  0  0
   -1.4729    1.9880    0.7293 H   0  0  0  0  0  0  0  0  0  0  0  0
    1.4770   -1.9982    0.7166 H   0  0  0  0  0  0  0  0  0  0  0  0
   -0.9221   -2.3094    0.6834 H   0  0  0  0  0  0  0  0  0  0  0  0
  1 31  2  0  0  0  0
  2 32  2  0  0  0  0
  3 11  1  0  0  0  0
  3 15  1  0  0  0  0
  3 45  1  0  0  0  0
  4 12  1  0  0  0  0
  4 16  1  0  0  0  0
  4 46  1  0  0  0  0
  5 15  1  0  0  0  0
  5 17  1  0  0  0  0
  5 47  1  0  0  0  0
  6 16  1  0  0  0  0
  6 18  1  0  0  0  0
  6 48  1  0  0  0  0
  7 13  1  0  0  0  0
  7 15  2  0  0  0  0
  8 14  1  0  0  0  0
  8 16  2  0  0  0  0
  9 19  1  0  0  0  0
  9 31  1  0  0  0  0
  9 57  1  0  0  0  0
 10 20  1  0  0  0  0
 10 32  1  0  0  0  0
 10 58  1  0  0  0  0
 11 13  1  0  0  0  0
 11 37  1  0  0  0  0
 11 38  1  0  0  0  0
 12 14  1  0  0  0  0
 12 39  1  0  0  0  0
 12 40  1  0  0  0  0
 13 41  1  0  0  0  0
 13 42  1  0  0  0  0
 14 43  1  0  0  0  0
 14 44  1  0  0  0  0
 17 21  2  0  0  0  0
 17 23  1  0  0  0  0
 18 22  2  0  0  0  0
 18 24  1  0  0  0  0
 19 25  2  0  0  0  0
 19 27  1  0  0  0  0
 20 26  2  0  0  0  0
 20 28  1  0  0  0  0
 21 25  1  0  0  0  0
 21 49  1  0  0  0  0
 22 26  1  0  0  0  0
 22 50  1  0  0  0  0
 23 27  2  0  0  0  0
 23 51  1  0  0  0  0
 24 28  2  0  0  0  0
 24 52  1  0  0  0  0
 25 53  1  0  0  0  0
 26 54  1  0  0  0  0
 27 55  1  0  0  0  0
 28 56  1  0  0  0  0
 29 31  1  0  0  0  0
 29 33  2  0  0  0  0
 29 35  1  0  0  0  0
 30 32  1  0  0  0  0
 30 34  2  0  0  0  0
 30 36  1  0  0  0  0
 33 34  1  0  0  0  0
 33 59  1  0  0  0  0
 34 60  1  0  0  0  0
 35 36  2  0  0  0  0
 35 61  1  0  0  0  0
 36 62  1  0  0  0  0
M  END
> <PUBCHEM_COMPOUND_CID>
8245

> <PUBCHEM_CONFORMER_RMSD>
1.2

> <PUBCHEM_CONFORMER_DIVERSEORDER>
2
1
4
6
5
3
7

> <PUBCHEM_MMFF94_PARTIAL_CHARGES>
54
1 -0.57
10 -0.55
11 0.37
12 0.37
13 0.25
14 0.25
15 0.55
16 0.55
17 0.1
18 0.1
19 0.12
2 -0.57
20 0.12
21 -0.15
22 -0.15
23 -0.15
24 -0.15
25 -0.15
26 -0.15
27 -0.15
28 -0.15
29 0.09
3 -0.82
30 0.09
31 0.54
32 0.54
33 -0.15
34 -0.15
35 -0.15
36 -0.15
4 -0.82
45 0.4
46 0.4
47 0.4
48 0.4
49 0.15
5 -0.55
50 0.15
51 0.15
52 0.15
53 0.15
54 0.15
55 0.15
56 0.15
57 0.37
58 0.37
59 0.15
6 -0.55
60 0.15
61 0.15
62 0.15
7 -0.7
8 -0.7
9 -0.55

> <PUBCHEM_EFFECTIVE_ROTOR_COUNT>
11.2

> <PUBCHEM_PHARMACOPHORE_FEATURES>
15
1 1 acceptor
1 10 donor
1 2 acceptor
1 3 donor
1 4 donor
1 5 donor
1 6 donor
1 9 donor
4 3 5 7 15 cation
4 4 6 8 16 cation
5 3 7 11 13 15 rings
5 4 8 12 14 16 rings
6 17 19 21 23 25 27 rings
6 18 20 22 24 26 28 rings
6 29 30 33 34 35 36 rings

> <PUBCHEM_HEAVY_ATOM_COUNT>
36

> <PUBCHEM_ATOM_DEF_STEREO_COUNT>
0

> <PUBCHEM_ATOM_UDEF_STEREO_COUNT>
0

> <PUBCHEM_BOND_DEF_STEREO_COUNT>
0

> <PUBCHEM_BOND_UDEF_STEREO_COUNT>
0

> <PUBCHEM_ISOTOPIC_ATOM_COUNT>
0

> <PUBCHEM_COMPONENT_COUNT>
1

> <PUBCHEM_CACTVS_TAUTO_COUNT>
10

> <PUBCHEM_CONFORMER_ID>
0000203500000002

> <PUBCHEM_MMFF94_ENERGY>
144.7935

> <PUBCHEM_FEATURE_SELFOVERLAP>
76.209

> <PUBCHEM_SHAPE_FINGERPRINT>
10580692 12 18410011052377918537
11061554 47 17704357696896730053
11135609 127 18201995487977632508
11408170 108 15647326480951270414
12013929 94 18335420158613442111
12498461 61 8214130869121316941
12559415 90 16845299366510372588
12664476 115 15410897353111267455
131240 100 18411136896460736137
14251764 46 18411138043206434825
14251920 17 18411700964039662084
14344974 52 18343864394264845412
15061470 23 14189580745727887151
15219723 13 7493015046382749676
15247644 1 15647052663827337348
15343295 20 9079112258741986027
15510794 2 18334295366702686451
155225 1 17203608190342920700
15840311 113 18272090457422217525
15890870 6 18334857229824244734
16728433 110 16660652847319691840
1818759 1 15719393940502644519
20105231 36 18187366557834963527
20501277 279 11167943562854423997
20580484 106 10303814277121475485
21362267 2 14836118802117328415
232437 2 18040436594680782263
23528521 120 18342741793610629276
335352 9 18410573985151451451
395649 100 17846777383310578859
44389302 135 8646773279586253788
4874694 18 17489866051135186586
5028188 123 18411701015843182749
54039377 194 17894353281339989461
6673363 416 18341896312345844269
67123 10 18410575097547980823
9663363 56 15626506090350290268

> <PUBCHEM_SHAPE_MULTIPOLES>
689.28
53.4
1.8
0.95
0.65
0
-0.06
0.29
21.92
-0.07
0.31
0
0
0.17

> <PUBCHEM_SHAPE_SELFOVERLAP>
1507.581

> <PUBCHEM_SHAPE_VOLUME>
371.9

> <PUBCHEM_COORDINATE_TYPE>
2
5
10

$$$$

