4136
  -OEChem-06251223543D

 28 27  0     0  0  0  0  0  0999 V2000
    1.0423   -0.5928    0.0124 O   0  0  0  0  0  0  0  0  0  0  0  0
    2.2249    1.3760   -0.0003 O   0  0  0  0  0  0  0  0  0  0  0  0
   -2.6477   -0.0359   -0.0038 N   0  3  0  0  0  0  0  0  0  0  0  0
    3.2942   -0.6829   -0.0022 N   0  0  0  0  0  0  0  0  0  0  0  0
   -1.3468   -0.8250    0.0287 C   0  0  0  0  0  0  0  0  0  0  0  0
   -2.6821    0.8346   -1.2517 C   0  0  0  0  0  0  0  0  0  0  0  0
   -3.8252   -0.9999   -0.0251 C   0  0  0  0  0  0  0  0  0  0  0  0
   -2.7370    0.8467    1.2329 C   0  0  0  0  0  0  0  0  0  0  0  0
   -0.1766    0.1386    0.0186 C   0  0  0  0  0  0  0  0  0  0  0  0
    2.1949    0.1497    0.0029 C   0  0  0  0  0  0  0  0  0  0  0  0
    4.6590   -0.2090   -0.0125 C   0  0  0  0  0  0  0  0  0  0  0  0
   -1.3425   -1.4521    0.9284 H   0  0  0  0  0  0  0  0  0  0  0  0
   -1.3233   -1.4885   -0.8442 H   0  0  0  0  0  0  0  0  0  0  0  0
   -2.4196    0.2203   -2.1181 H   0  0  0  0  0  0  0  0  0  0  0  0
   -3.7008    1.2197   -1.3653 H   0  0  0  0  0  0  0  0  0  0  0  0
   -2.0043    1.6845   -1.1410 H   0  0  0  0  0  0  0  0  0  0  0  0
   -3.7805   -1.6188    0.8760 H   0  0  0  0  0  0  0  0  0  0  0  0
   -4.7530   -0.4204   -0.0437 H   0  0  0  0  0  0  0  0  0  0  0  0
   -3.7461   -1.6214   -0.9220 H   0  0  0  0  0  0  0  0  0  0  0  0
   -2.5401    0.2339    2.1175 H   0  0  0  0  0  0  0  0  0  0  0  0
   -2.0305    1.6768    1.1580 H   0  0  0  0  0  0  0  0  0  0  0  0
   -3.7513    1.2562    1.2820 H   0  0  0  0  0  0  0  0  0  0  0  0
   -0.1711    0.7675   -0.8755 H   0  0  0  0  0  0  0  0  0  0  0  0
   -0.1676    0.7727    0.9096 H   0  0  0  0  0  0  0  0  0  0  0  0
    3.1358   -1.6858    0.0014 H   0  0  0  0  0  0  0  0  0  0  0  0
    4.7015    0.8826   -0.0161 H   0  0  0  0  0  0  0  0  0  0  0  0
    5.1499   -0.6027   -0.9057 H   0  0  0  0  0  0  0  0  0  0  0  0
    5.1614   -0.5972    0.8768 H   0  0  0  0  0  0  0  0  0  0  0  0
  1  9  1  0  0  0  0
  1 10  1  0  0  0  0
  2 10  2  0  0  0  0
  3  5  1  0  0  0  0
  3  6  1  0  0  0  0
  3  7  1  0  0  0  0
  3  8  1  0  0  0  0
  4 10  1  0  0  0  0
  4 11  1  0  0  0  0
  4 25  1  0  0  0  0
  5  9  1  0  0  0  0
  5 12  1  0  0  0  0
  5 13  1  0  0  0  0
  6 14  1  0  0  0  0
  6 15  1  0  0  0  0
  6 16  1  0  0  0  0
  7 17  1  0  0  0  0
  7 18  1  0  0  0  0
  7 19  1  0  0  0  0
  8 20  1  0  0  0  0
  8 21  1  0  0  0  0
  8 22  1  0  0  0  0
  9 23  1  0  0  0  0
  9 24  1  0  0  0  0
 11 26  1  0  0  0  0
 11 27  1  0  0  0  0
 11 28  1  0  0  0  0
M  CHG  1   3   1
M  END
> <PUBCHEM_COMPOUND_CID>
4136

> <PUBCHEM_CONFORMER_RMSD>
0.6

> <PUBCHEM_CONFORMER_DIVERSEORDER>
1
30
15
22
28
21
12
17
16
25
3
24
8
11
19
29
2
6
7
18
5
20
13
23
4
14
9
10
26
27
31

> <PUBCHEM_MMFF94_PARTIAL_CHARGES>
12
1 -0.43
10 0.78
11 0.3
2 -0.57
25 0.37
3 -1.01
4 -0.73
5 0.5
6 0.5
7 0.5
8 0.5
9 0.28

> <PUBCHEM_EFFECTIVE_ROTOR_COUNT>
5

> <PUBCHEM_PHARMACOPHORE_FEATURES>
3
1 2 acceptor
1 3 cation
1 4 donor

> <PUBCHEM_HEAVY_ATOM_COUNT>
11

> <PUBCHEM_ATOM_DEF_STEREO_COUNT>
0

> <PUBCHEM_ATOM_UDEF_STEREO_COUNT>
0

> <PUBCHEM_BOND_DEF_STEREO_COUNT>
0

> <PUBCHEM_BOND_UDEF_STEREO_COUNT>
0

> <PUBCHEM_ISOTOPIC_ATOM_COUNT>
0

> <PUBCHEM_COMPONENT_COUNT>
1

> <PUBCHEM_CACTVS_TAUTO_COUNT>
2

> <PUBCHEM_CONFORMER_ID>
0000102800000001

> <PUBCHEM_MMFF94_ENERGY>
26.0257

> <PUBCHEM_FEATURE_SELFOVERLAP>
15.223

> <PUBCHEM_SHAPE_FINGERPRINT>
10680689 15 17847055605899247702
11062470 55 8935004767247537323
12162725 195 18187078442748895577
124424 183 17917719032136001872
12932764 1 17988929971897315018
14123238 8 18410292493506632694
14144814 61 18335421300504965826
14325111 11 18410573967971601451
17834076 25 7637404029516072042
18186145 218 18409728469637242712
190213 19 18187366536396660374
1986462 14 18343582957948186879
200 152 18186811262035197935
20645464 45 18341324569981762495
20645477 70 17987809643064864906
20671657 1 18195519299422145196
2306618 200 18340490066521348145
23380061 127 17822010917315054763
23402539 116 17676213472317245349
3248919 1 18040151824899705255

> <PUBCHEM_SHAPE_MULTIPOLES>
204.67
8.17
1.1
0.89
5.92
0.11
-0.01
-0.85
-0.03
-0.38
0
-0.85
0.26
-0.01

> <PUBCHEM_SHAPE_SELFOVERLAP>
374.176

> <PUBCHEM_SHAPE_VOLUME>
133

> <PUBCHEM_COORDINATE_TYPE>
2
5
10

$$$$

