4592
  -OEChem-06261200142D

 40 42  0     0  0  0  0  0  0999 V2000
    2.5369   -4.3450    0.0000 O   0  0  0  0  0  0  0  0  0  0  0  0
    6.9473   -1.6497    0.0000 N   0  0  0  0  0  0  0  0  0  0  0  0
    5.1350    1.1550    0.0000 N   0  0  0  0  0  0  0  0  0  0  0  0
    5.1350   -1.8450    0.0000 N   0  0  0  0  0  0  0  0  0  0  0  0
    6.9473   -0.0403    0.0000 N   0  0  0  0  0  0  0  0  0  0  0  0
    4.2690   -0.3450    0.0000 N   0  0  0  0  0  0  0  0  0  0  0  0
    3.4030   -1.8450    0.0000 N   0  0  0  0  0  0  0  0  0  0  0  0
    6.0010   -0.3450    0.0000 C   0  0  0  0  0  0  0  0  0  0  0  0
    6.0010   -1.3450    0.0000 C   0  0  0  0  0  0  0  0  0  0  0  0
    5.1350    0.1550    0.0000 C   0  0  0  0  0  0  0  0  0  0  0  0
    4.2690    1.6550    0.0000 C   0  0  0  0  0  0  0  0  0  0  0  0
    4.2690   -1.3450    0.0000 C   0  0  0  0  0  0  0  0  0  0  0  0
    7.5309   -0.8450    0.0000 C   0  0  0  0  0  0  0  0  0  0  0  0
    4.2690    2.6550    0.0000 C   0  0  0  0  0  0  0  0  0  0  0  0
    7.2579   -2.6002    0.0000 C   0  0  0  0  0  0  0  0  0  0  0  0
    3.4030   -2.8450    0.0000 C   0  0  0  0  0  0  0  0  0  0  0  0
    5.1350    3.1550    0.0000 C   0  0  0  0  0  0  0  0  0  0  0  0
    3.4030    3.1550    0.0000 C   0  0  0  0  0  0  0  0  0  0  0  0
    2.5369   -3.3450    0.0000 C   0  0  0  0  0  0  0  0  0  0  0  0
    5.1350    4.1550    0.0000 C   0  0  0  0  0  0  0  0  0  0  0  0
    3.4030    4.1550    0.0000 C   0  0  0  0  0  0  0  0  0  0  0  0
    4.2690    4.6550    0.0000 C   0  0  0  0  0  0  0  0  0  0  0  0
    3.6584    1.7627    0.0000 H   0  0  0  0  0  0  0  0  0  0  0  0
    4.0569    1.0724    0.0000 H   0  0  0  0  0  0  0  0  0  0  0  0
    5.6720    1.4650    0.0000 H   0  0  0  0  0  0  0  0  0  0  0  0
    8.1509   -0.8450    0.0000 H   0  0  0  0  0  0  0  0  0  0  0  0
    6.6686   -2.7929    0.0000 H   0  0  0  0  0  0  0  0  0  0  0  0
    7.4505   -3.1896    0.0000 H   0  0  0  0  0  0  0  0  0  0  0  0
    7.8472   -2.4076    0.0000 H   0  0  0  0  0  0  0  0  0  0  0  0
    2.8660   -1.5350    0.0000 H   0  0  0  0  0  0  0  0  0  0  0  0
    3.6150   -3.4276    0.0000 H   0  0  0  0  0  0  0  0  0  0  0  0
    4.0135   -2.7373    0.0000 H   0  0  0  0  0  0  0  0  0  0  0  0
    5.6720    2.8450    0.0000 H   0  0  0  0  0  0  0  0  0  0  0  0
    2.8660    2.8450    0.0000 H   0  0  0  0  0  0  0  0  0  0  0  0
    2.3249   -2.7624    0.0000 H   0  0  0  0  0  0  0  0  0  0  0  0
    1.9264   -3.4527    0.0000 H   0  0  0  0  0  0  0  0  0  0  0  0
    5.6720    4.4650    0.0000 H   0  0  0  0  0  0  0  0  0  0  0  0
    2.8660    4.4650    0.0000 H   0  0  0  0  0  0  0  0  0  0  0  0
    4.2690    5.2750    0.0000 H   0  0  0  0  0  0  0  0  0  0  0  0
    2.0000   -4.6550    0.0000 H   0  0  0  0  0  0  0  0  0  0  0  0
  1 19  1  0  0  0  0
  1 40  1  0  0  0  0
  2  9  1  0  0  0  0
  2 13  1  0  0  0  0
  2 15  1  0  0  0  0
  3 10  1  0  0  0  0
  3 11  1  0  0  0  0
  3 25  1  0  0  0  0
  4  9  2  0  0  0  0
  4 12  1  0  0  0  0
  5  8  1  0  0  0  0
  5 13  2  0  0  0  0
  6 10  1  0  0  0  0
  6 12  2  0  0  0  0
  7 12  1  0  0  0  0
  7 16  1  0  0  0  0
  7 30  1  0  0  0  0
  8  9  1  0  0  0  0
  8 10  2  0  0  0  0
 11 14  1  0  0  0  0
 11 23  1  0  0  0  0
 11 24  1  0  0  0  0
 13 26  1  0  0  0  0
 14 17  2  0  0  0  0
 14 18  1  0  0  0  0
 15 27  1  0  0  0  0
 15 28  1  0  0  0  0
 15 29  1  0  0  0  0
 16 19  1  0  0  0  0
 16 31  1  0  0  0  0
 16 32  1  0  0  0  0
 17 20  1  0  0  0  0
 17 33  1  0  0  0  0
 18 21  2  0  0  0  0
 18 34  1  0  0  0  0
 19 35  1  0  0  0  0
 19 36  1  0  0  0  0
 20 22  2  0  0  0  0
 20 37  1  0  0  0  0
 21 22  1  0  0  0  0
 21 38  1  0  0  0  0
 22 39  1  0  0  0  0
M  END
> <PUBCHEM_COMPOUND_CID>
4592

> <PUBCHEM_COMPOUND_CANONICALIZED>
1

> <PUBCHEM_CACTVS_COMPLEXITY>
338

> <PUBCHEM_CACTVS_HBOND_ACCEPTOR>
6

> <PUBCHEM_CACTVS_HBOND_DONOR>
3

> <PUBCHEM_CACTVS_ROTATABLE_BOND>
6

> <PUBCHEM_CACTVS_SUBSKEYS>
AAADceBzoAAAAAAAAAAAAAAAAAAAAWAAAAA8QAAAAAAAAFgB/AAAHgAQCAAADAjhnwY38L/MEgCgAyZjZACCgC0xEKAJ2KAoVJiKeCLA2VGUJAhokALYiCcQgAAOAAAAAAAAAAAAAAAAAAAAAAAAAAAAAA==

> <PUBCHEM_IUPAC_OPENEYE_NAME>
2-[[6-(benzylamino)-9-methyl-purin-2-yl]amino]ethanol

> <PUBCHEM_IUPAC_CAS_NAME>
2-[[9-methyl-6-[(phenylmethyl)amino]-2-purinyl]amino]ethanol

> <PUBCHEM_IUPAC_NAME>
2-[[6-(benzylamino)-9-methylpurin-2-yl]amino]ethanol

> <PUBCHEM_IUPAC_SYSTEMATIC_NAME>
2-[[9-methyl-6-[(phenylmethyl)amino]purin-2-yl]amino]ethanol

> <PUBCHEM_IUPAC_TRADITIONAL_NAME>
2-[[6-(benzylamino)-9-methyl-purin-2-yl]amino]ethanol

> <PUBCHEM_IUPAC_INCHI>
InChI=1S/C15H18N6O/c1-21-10-18-12-13(17-9-11-5-3-2-4-6-11)19-15(16-7-8-22)20-14(12)21/h2-6,10,22H,7-9H2,1H3,(H2,16,17,19,20)

> <PUBCHEM_IUPAC_INCHIKEY>
GTVPOLSIJWJJNY-UHFFFAOYSA-N

> <PUBCHEM_XLOGP3_AA>
1.5

> <PUBCHEM_EXACT_MASS>
298.154209

> <PUBCHEM_MOLECULAR_FORMULA>
C15H18N6O

> <PUBCHEM_MOLECULAR_WEIGHT>
298.34302

> <PUBCHEM_OPENEYE_CAN_SMILES>
CN1C=NC2=C1N=C(N=C2NCC3=CC=CC=C3)NCCO

> <PUBCHEM_OPENEYE_ISO_SMILES>
CN1C=NC2=C1N=C(N=C2NCC3=CC=CC=C3)NCCO

> <PUBCHEM_CACTVS_TPSA>
87.9

> <PUBCHEM_MONOISOTOPIC_WEIGHT>
298.154209

> <PUBCHEM_TOTAL_CHARGE>
0

> <PUBCHEM_HEAVY_ATOM_COUNT>
22

> <PUBCHEM_ATOM_DEF_STEREO_COUNT>
0

> <PUBCHEM_ATOM_UDEF_STEREO_COUNT>
0

> <PUBCHEM_BOND_DEF_STEREO_COUNT>
0

> <PUBCHEM_BOND_UDEF_STEREO_COUNT>
0

> <PUBCHEM_ISOTOPIC_ATOM_COUNT>
0

> <PUBCHEM_COMPONENT_COUNT>
1

> <PUBCHEM_CACTVS_TAUTO_COUNT>
6

> <PUBCHEM_COORDINATE_TYPE>
1
5
255

> <PUBCHEM_BONDANNOTATIONS>
14  17  8
14  18  8
17  20  8
18  21  8
2  13  8
2  9  8
20  22  8
21  22  8
4  12  8
4  9  8
5  13  8
5  8  8
6  10  8
6  12  8
8  10  8
8  9  8

$$$$

