7785
  -OEChem-06261202193D

 45 45  0     1  0  0  0  0  0999 V2000
    4.7619    0.7756    0.0084 O   0  0  0  0  0  0  0  0  0  0  0  0
    6.6774    1.9891   -0.3427 O   0  0  0  0  0  0  0  0  0  0  0  0
    4.4704   -0.5687    0.4147 C   0  0  1  0  0  0  0  0  0  0  0  0
    3.1792   -1.0339   -0.2312 C   0  0  0  0  0  0  0  0  0  0  0  0
    1.9815   -0.2291    0.2746 C   0  0  0  0  0  0  0  0  0  0  0  0
    0.6427   -0.7087   -0.2956 C   0  0  0  0  0  0  0  0  0  0  0  0
   -0.5615    0.0499    0.2688 C   0  0  0  0  0  0  0  0  0  0  0  0
    5.6791   -1.3642   -0.0243 C   0  0  0  0  0  0  0  0  0  0  0  0
   -1.8999   -0.4207   -0.3104 C   0  0  0  0  0  0  0  0  0  0  0  0
   -3.1105    0.2861    0.3054 C   0  0  0  0  0  0  0  0  0  0  0  0
    6.8022   -0.3746    0.1741 C   0  0  0  0  0  0  0  0  0  0  0  0
   -4.4190   -0.2416   -0.2893 C   0  0  0  0  0  0  0  0  0  0  0  0
   -5.6678    0.4121    0.3096 C   0  0  0  0  0  0  0  0  0  0  0  0
    6.1175    0.9322   -0.0965 C   0  0  0  0  0  0  0  0  0  0  0  0
   -6.9746   -0.0965   -0.3027 C   0  0  0  0  0  0  0  0  0  0  0  0
   -8.1884    0.5347    0.3810 C   0  0  0  0  0  0  0  0  0  0  0  0
   -9.4901    0.0583   -0.2440 C   0  0  0  0  0  0  0  0  0  0  0  0
    4.3780   -0.5761    1.5082 H   0  0  0  0  0  0  0  0  0  0  0  0
    3.0219   -2.0976   -0.0168 H   0  0  0  0  0  0  0  0  0  0  0  0
    3.2390   -0.9201   -1.3208 H   0  0  0  0  0  0  0  0  0  0  0  0
    1.9417   -0.2930    1.3693 H   0  0  0  0  0  0  0  0  0  0  0  0
    2.1134    0.8307    0.0246 H   0  0  0  0  0  0  0  0  0  0  0  0
    0.5229   -1.7781   -0.0825 H   0  0  0  0  0  0  0  0  0  0  0  0
    0.6587   -0.6029   -1.3873 H   0  0  0  0  0  0  0  0  0  0  0  0
   -0.5799   -0.0693    1.3592 H   0  0  0  0  0  0  0  0  0  0  0  0
   -0.4412    1.1218    0.0691 H   0  0  0  0  0  0  0  0  0  0  0  0
    5.6101   -1.6260   -1.0877 H   0  0  0  0  0  0  0  0  0  0  0  0
    5.8133   -2.2894    0.5430 H   0  0  0  0  0  0  0  0  0  0  0  0
   -1.9959   -1.5020   -0.1507 H   0  0  0  0  0  0  0  0  0  0  0  0
   -1.8971   -0.2599   -1.3956 H   0  0  0  0  0  0  0  0  0  0  0  0
   -3.1128    0.1317    1.3910 H   0  0  0  0  0  0  0  0  0  0  0  0
   -3.0347    1.3659    0.1311 H   0  0  0  0  0  0  0  0  0  0  0  0
    7.1717   -0.3784    1.2035 H   0  0  0  0  0  0  0  0  0  0  0  0
    7.6182   -0.5466   -0.5314 H   0  0  0  0  0  0  0  0  0  0  0  0
   -4.4762   -1.3262   -0.1344 H   0  0  0  0  0  0  0  0  0  0  0  0
   -4.4143   -0.0767   -1.3739 H   0  0  0  0  0  0  0  0  0  0  0  0
   -5.6788    0.2290    1.3914 H   0  0  0  0  0  0  0  0  0  0  0  0
   -5.6048    1.4989    0.1735 H   0  0  0  0  0  0  0  0  0  0  0  0
   -7.0253   -1.1877   -0.2056 H   0  0  0  0  0  0  0  0  0  0  0  0
   -6.9893    0.1340   -1.3747 H   0  0  0  0  0  0  0  0  0  0  0  0
   -8.1877    0.2834    1.4479 H   0  0  0  0  0  0  0  0  0  0  0  0
   -8.1327    1.6268    0.3044 H   0  0  0  0  0  0  0  0  0  0  0  0
  -10.3442    0.5210    0.2602 H   0  0  0  0  0  0  0  0  0  0  0  0
   -9.5919   -1.0281   -0.1574 H   0  0  0  0  0  0  0  0  0  0  0  0
   -9.5365    0.3247   -1.3048 H   0  0  0  0  0  0  0  0  0  0  0  0
  1  3  1  0  0  0  0
  1 14  1  0  0  0  0
  2 14  2  0  0  0  0
  3  4  1  0  0  0  0
  3  8  1  0  0  0  0
  3 18  1  0  0  0  0
  4  5  1  0  0  0  0
  4 19  1  0  0  0  0
  4 20  1  0  0  0  0
  5  6  1  0  0  0  0
  5 21  1  0  0  0  0
  5 22  1  0  0  0  0
  6  7  1  0  0  0  0
  6 23  1  0  0  0  0
  6 24  1  0  0  0  0
  7  9  1  0  0  0  0
  7 25  1  0  0  0  0
  7 26  1  0  0  0  0
  8 11  1  0  0  0  0
  8 27  1  0  0  0  0
  8 28  1  0  0  0  0
  9 10  1  0  0  0  0
  9 29  1  0  0  0  0
  9 30  1  0  0  0  0
 10 12  1  0  0  0  0
 10 31  1  0  0  0  0
 10 32  1  0  0  0  0
 11 14  1  0  0  0  0
 11 33  1  0  0  0  0
 11 34  1  0  0  0  0
 12 13  1  0  0  0  0
 12 35  1  0  0  0  0
 12 36  1  0  0  0  0
 13 15  1  0  0  0  0
 13 37  1  0  0  0  0
 13 38  1  0  0  0  0
 15 16  1  0  0  0  0
 15 39  1  0  0  0  0
 15 40  1  0  0  0  0
 16 17  1  0  0  0  0
 16 41  1  0  0  0  0
 16 42  1  0  0  0  0
 17 43  1  0  0  0  0
 17 44  1  0  0  0  0
 17 45  1  0  0  0  0
M  END
> <PUBCHEM_COMPOUND_CID>
7785

> <PUBCHEM_CONFORMER_RMSD>
1.2

> <PUBCHEM_CONFORMER_DIVERSEORDER>
1
74
124
5
102
85
6
126
62
132
2
7
8
49
38
19
119
3
117
27
84
90
134
21
128
33
23
60
82
12
116
11
96
77
14
42
114
71
68
40
92
15
108
17
24
106
37
127
78
99
30
13
81
50
66
20
104
63
29
98
93
105
65
4
130
113
69
91
31
87
97
32
125
34
110
73
56
76
16
111
86
28
58
54
10
43
47
25
120
75
115
57
45
129
41
118
112
131
64
72
52
107
44
9
121
61
109
67
26
95
18
123
39
122
89
80
79
55
59
94
48
36
46
53
22
35
100
51
133
83
88
101
103
70

> <PUBCHEM_MMFF94_PARTIAL_CHARGES>
5
1 -0.43
11 0.06
14 0.66
2 -0.57
3 0.28

> <PUBCHEM_EFFECTIVE_ROTOR_COUNT>
10.8

> <PUBCHEM_PHARMACOPHORE_FEATURES>
3
1 17 hydrophobe
1 2 acceptor
5 1 3 8 11 14 rings

> <PUBCHEM_HEAVY_ATOM_COUNT>
17

> <PUBCHEM_ATOM_DEF_STEREO_COUNT>
0

> <PUBCHEM_ATOM_UDEF_STEREO_COUNT>
1

> <PUBCHEM_BOND_DEF_STEREO_COUNT>
0

> <PUBCHEM_BOND_UDEF_STEREO_COUNT>
0

> <PUBCHEM_ISOTOPIC_ATOM_COUNT>
0

> <PUBCHEM_COMPONENT_COUNT>
1

> <PUBCHEM_CACTVS_TAUTO_COUNT>
2

> <PUBCHEM_CONFORMER_ID>
00001E6900000001

> <PUBCHEM_MMFF94_ENERGY>
2.6252

> <PUBCHEM_FEATURE_SELFOVERLAP>
15.223

> <PUBCHEM_SHAPE_FINGERPRINT>
10299344 5 18113057142988308367
11315181 36 18335136493762294203
11638347 137 16702308974893213738
12091667 2 18261111886149018403
125118 31 17775282785283737429
13073987 5 16343433915789402199
14123256 10 16950564393698013331
14170010 4 18060418001985705436
14251764 18 17967249811007328073
14251764 46 18260268560055488890
14428016 248 17894905227497684161
14933364 13 18412262843670331901
15419008 47 17060346219053814397
155225 1 18411136893321731756
15690457 1 11095883752851086129
15716309 27 18408042922976354399
16120349 18 18412547578770281277
17834076 25 17458346350926762515
20157964 124 18411981377937917390
20281389 69 18272934937753887573
20735858 18 14764630811100062201
21095086 128 8070023364482879773
21130983 4 18408884036069742281
21150785 3 18040154020287291955
21315763 28 18410575123333673888
22224240 67 17704354368666171419
23521765 1 18335139804528146219
28498 318 8358262536183950585
33684 2 18259987088877925339
4073 2 18201434736082394850
4325135 7 18113899368589177757
6438161 24 5328471359123314156
8209 1 18259987085363471907

> <PUBCHEM_SHAPE_MULTIPOLES>
338.11
29.14
1.14
0.68
38.27
0.27
-0.01
5.18
0.54
-2.46
0.09
0.13
-0.01
-0.54

> <PUBCHEM_SHAPE_SELFOVERLAP>
640.098

> <PUBCHEM_SHAPE_VOLUME>
210.8

> <PUBCHEM_COORDINATE_TYPE>
2
5
10

$$$$

