8315
  -OEChem-06261202443D

 11 10  0     0  0  0  0  0  0999 V2000
   -1.2645    1.7416   -0.4672 Cl  0  0  0  0  0  0  0  0  0  0  0  0
   -2.3328   -0.9074    0.1141 Cl  0  0  0  0  0  0  0  0  0  0  0  0
    1.2832    0.5601    0.3222 O   0  0  0  0  0  0  0  0  0  0  0  0
    0.4520   -1.4465   -0.4477 O   0  0  0  0  0  0  0  0  0  0  0  0
   -1.0352    0.2495    0.4538 C   0  0  0  0  0  0  0  0  0  0  0  0
    0.2907   -0.3426    0.0563 C   0  0  0  0  0  0  0  0  0  0  0  0
    2.6066    0.1452   -0.0316 C   0  0  0  0  0  0  0  0  0  0  0  0
   -1.0408    0.4679    1.5253 H   0  0  0  0  0  0  0  0  0  0  0  0
    3.2970    0.9510    0.2314 H   0  0  0  0  0  0  0  0  0  0  0  0
    2.6713   -0.0352   -1.1088 H   0  0  0  0  0  0  0  0  0  0  0  0
    2.8845   -0.7525    0.5289 H   0  0  0  0  0  0  0  0  0  0  0  0
  1  5  1  0  0  0  0
  2  5  1  0  0  0  0
  3  6  1  0  0  0  0
  3  7  1  0  0  0  0
  4  6  2  0  0  0  0
  5  6  1  0  0  0  0
  5  8  1  0  0  0  0
  7  9  1  0  0  0  0
  7 10  1  0  0  0  0
  7 11  1  0  0  0  0
M  END
> <PUBCHEM_COMPOUND_CID>
8315

> <PUBCHEM_CONFORMER_RMSD>
0.4

> <PUBCHEM_CONFORMER_DIVERSEORDER>
1
2
3

> <PUBCHEM_MMFF94_PARTIAL_CHARGES>
7
1 -0.29
2 -0.29
3 -0.43
4 -0.57
5 0.64
6 0.66
7 0.28

> <PUBCHEM_EFFECTIVE_ROTOR_COUNT>
2

> <PUBCHEM_PHARMACOPHORE_FEATURES>
1
1 4 acceptor

> <PUBCHEM_HEAVY_ATOM_COUNT>
7

> <PUBCHEM_ATOM_DEF_STEREO_COUNT>
0

> <PUBCHEM_ATOM_UDEF_STEREO_COUNT>
0

> <PUBCHEM_BOND_DEF_STEREO_COUNT>
0

> <PUBCHEM_BOND_UDEF_STEREO_COUNT>
0

> <PUBCHEM_ISOTOPIC_ATOM_COUNT>
0

> <PUBCHEM_COMPONENT_COUNT>
1

> <PUBCHEM_CACTVS_TAUTO_COUNT>
1

> <PUBCHEM_CONFORMER_ID>
0000207B00000001

> <PUBCHEM_MMFF94_ENERGY>
9.3851

> <PUBCHEM_FEATURE_SELFOVERLAP>
5.074

> <PUBCHEM_SHAPE_FINGERPRINT>
16714656 1 18337106757119409262
20096714 4 17980764058078453377
21040471 1 18052823833891221869
23552423 10 18201151173956916370
23552449 1 18342179981137843085
24536 1 17679026151540862963
29004967 10 18341604863847722211
5084963 1 18335699429680943472
5460574 1 10231767673150594386

> <PUBCHEM_SHAPE_MULTIPOLES>
136.06
3.15
1.53
0.7
1.14
0.41
0
-0.22
0.06
-0.76
-0.28
-0.07
0.02
0.2

> <PUBCHEM_SHAPE_SELFOVERLAP>
234.29

> <PUBCHEM_SHAPE_VOLUME>
92.1

> <PUBCHEM_COORDINATE_TYPE>
2
5
10

$$$$

