586241
  -OEChem-06241222463D

 41 43  0     0  0  0  0  0  0999 V2000
   -1.6774    2.1748   -0.2887 O   0  0  0  0  0  0  0  0  0  0  0  0
    3.4917   -1.7284    0.8276 O   0  0  0  0  0  0  0  0  0  0  0  0
    1.4567   -1.9331   -0.3315 O   0  0  0  0  0  0  0  0  0  0  0  0
   -0.1928    0.4176    0.2061 N   0  0  0  0  0  0  0  0  0  0  0  0
   -2.5448    0.0410    0.2887 C   0  0  0  0  0  0  0  0  0  0  0  0
   -3.7630    0.7747    0.8541 C   0  0  0  0  0  0  0  0  0  0  0  0
   -2.8904   -0.7066   -1.0011 C   0  0  0  0  0  0  0  0  0  0  0  0
   -4.9505   -0.1655    1.0423 C   0  0  0  0  0  0  0  0  0  0  0  0
   -4.0802   -1.6432   -0.8088 C   0  0  0  0  0  0  0  0  0  0  0  0
   -5.2922   -0.9060   -0.2472 C   0  0  0  0  0  0  0  0  0  0  0  0
   -1.4343    1.0160    0.0324 C   0  0  0  0  0  0  0  0  0  0  0  0
    1.0805    1.0159    0.0539 C   0  0  0  0  0  0  0  0  0  0  0  0
    2.2305    0.2721    0.2650 C   0  0  0  0  0  0  0  0  0  0  0  0
    2.1748   -1.1817    0.6595 C   0  0  0  0  0  0  0  0  0  0  0  0
    3.4079   -3.0259    0.2407 C   0  0  0  0  0  0  0  0  0  0  0  0
    2.4172   -2.8386   -0.8758 C   0  0  0  0  0  0  0  0  0  0  0  0
    1.1441    2.3524   -0.3086 C   0  0  0  0  0  0  0  0  0  0  0  0
    3.4763    0.8800    0.1098 C   0  0  0  0  0  0  0  0  0  0  0  0
    2.3899    2.9602   -0.4638 C   0  0  0  0  0  0  0  0  0  0  0  0
    3.5561    2.2241   -0.2546 C   0  0  0  0  0  0  0  0  0  0  0  0
   -2.2205   -0.6890    1.0430 H   0  0  0  0  0  0  0  0  0  0  0  0
   -4.0681    1.5894    0.1842 H   0  0  0  0  0  0  0  0  0  0  0  0
   -3.5090    1.2415    1.8138 H   0  0  0  0  0  0  0  0  0  0  0  0
   -2.0248   -1.2854   -1.3464 H   0  0  0  0  0  0  0  0  0  0  0  0
   -3.1185    0.0108   -1.8006 H   0  0  0  0  0  0  0  0  0  0  0  0
   -5.8223    0.4049    1.3820 H   0  0  0  0  0  0  0  0  0  0  0  0
   -4.7182   -0.8927    1.8301 H   0  0  0  0  0  0  0  0  0  0  0  0
   -3.7983   -2.4548   -0.1267 H   0  0  0  0  0  0  0  0  0  0  0  0
   -4.3422   -2.1076   -1.7661 H   0  0  0  0  0  0  0  0  0  0  0  0
   -6.1031   -1.6187   -0.0595 H   0  0  0  0  0  0  0  0  0  0  0  0
   -5.6613   -0.1903   -0.9922 H   0  0  0  0  0  0  0  0  0  0  0  0
   -0.1865   -0.5663    0.4615 H   0  0  0  0  0  0  0  0  0  0  0  0
    1.6533   -1.2822    1.6190 H   0  0  0  0  0  0  0  0  0  0  0  0
    3.0314   -3.7196    1.0004 H   0  0  0  0  0  0  0  0  0  0  0  0
    4.3898   -3.3616   -0.1015 H   0  0  0  0  0  0  0  0  0  0  0  0
    2.8796   -2.3559   -1.7436 H   0  0  0  0  0  0  0  0  0  0  0  0
    1.9378   -3.7679   -1.1928 H   0  0  0  0  0  0  0  0  0  0  0  0
    0.2939    2.9925   -0.4886 H   0  0  0  0  0  0  0  0  0  0  0  0
    4.4089    0.3452    0.2616 H   0  0  0  0  0  0  0  0  0  0  0  0
    2.4536    4.0068   -0.7475 H   0  0  0  0  0  0  0  0  0  0  0  0
    4.5258    2.6980   -0.3758 H   0  0  0  0  0  0  0  0  0  0  0  0
  1 11  2  0  0  0  0
  2 14  1  0  0  0  0
  2 15  1  0  0  0  0
  3 14  1  0  0  0  0
  3 16  1  0  0  0  0
  4 11  1  0  0  0  0
  4 12  1  0  0  0  0
  4 32  1  0  0  0  0
  5  6  1  0  0  0  0
  5  7  1  0  0  0  0
  5 11  1  0  0  0  0
  5 21  1  0  0  0  0
  6  8  1  0  0  0  0
  6 22  1  0  0  0  0
  6 23  1  0  0  0  0
  7  9  1  0  0  0  0
  7 24  1  0  0  0  0
  7 25  1  0  0  0  0
  8 10  1  0  0  0  0
  8 26  1  0  0  0  0
  8 27  1  0  0  0  0
  9 10  1  0  0  0  0
  9 28  1  0  0  0  0
  9 29  1  0  0  0  0
 10 30  1  0  0  0  0
 10 31  1  0  0  0  0
 12 13  1  0  0  0  0
 12 17  2  0  0  0  0
 13 14  1  0  0  0  0
 13 18  2  0  0  0  0
 14 33  1  0  0  0  0
 15 16  1  0  0  0  0
 15 34  1  0  0  0  0
 15 35  1  0  0  0  0
 16 36  1  0  0  0  0
 16 37  1  0  0  0  0
 17 19  1  0  0  0  0
 17 38  1  0  0  0  0
 18 20  1  0  0  0  0
 18 39  1  0  0  0  0
 19 20  2  0  0  0  0
 19 40  1  0  0  0  0
 20 41  1  0  0  0  0
M  END
> <PUBCHEM_COMPOUND_CID>
586241

> <PUBCHEM_CONFORMER_RMSD>
0.8

> <PUBCHEM_CONFORMER_DIVERSEORDER>
1
21
22
3
19
20
18
6
14
24
13
10
9
15
7
11
2
5
12
23
16
8
17
4

> <PUBCHEM_MMFF94_PARTIAL_CHARGES>
20
1 -0.57
11 0.57
12 0.12
13 -0.14
14 0.7
15 0.28
16 0.28
17 -0.15
18 -0.15
19 -0.15
2 -0.56
20 -0.15
3 -0.56
32 0.37
38 0.15
39 0.15
4 -0.55
40 0.15
41 0.15
5 0.06

> <PUBCHEM_EFFECTIVE_ROTOR_COUNT>
6.2

> <PUBCHEM_PHARMACOPHORE_FEATURES>
7
1 1 acceptor
1 2 acceptor
1 3 acceptor
1 4 donor
5 2 3 14 15 16 rings
6 12 13 17 18 19 20 rings
6 5 6 7 8 9 10 rings

> <PUBCHEM_HEAVY_ATOM_COUNT>
20

> <PUBCHEM_ATOM_DEF_STEREO_COUNT>
0

> <PUBCHEM_ATOM_UDEF_STEREO_COUNT>
0

> <PUBCHEM_BOND_DEF_STEREO_COUNT>
0

> <PUBCHEM_BOND_UDEF_STEREO_COUNT>
0

> <PUBCHEM_ISOTOPIC_ATOM_COUNT>
0

> <PUBCHEM_COMPONENT_COUNT>
1

> <PUBCHEM_CACTVS_TAUTO_COUNT>
2

> <PUBCHEM_CONFORMER_ID>
0008F20100000001

> <PUBCHEM_MMFF94_ENERGY>
48.1281

> <PUBCHEM_FEATURE_SELFOVERLAP>
35.56

> <PUBCHEM_SHAPE_FINGERPRINT>
10616163 171 18191866726089569047
11578080 2 17488470839472109996
12107183 9 18047180041375813409
12553582 1 18409451405280721790
13009979 54 17896312696210875098
13140716 1 18123192290612077960
13167823 11 18261388915154089197
13533116 47 18334577911332047123
13836976 161 18199467671452242620
13955234 65 18410854326446843336
14178342 30 18118975921122383072
14790565 3 17979349768287679812
14844126 61 16974781407925684786
14848160 33 18272097122862937107
14863182 85 18413105035887363676
15099037 8 18335702788408848001
15250474 111 18188500069009664199
15375462 189 18259983739114723049
15442244 35 18337669848907355073
17492 89 18410011061495861059
17818456 19 17752192036510610849
1813 80 18267577086369312182
20281475 54 18334299751695282609
20291156 8 18337673151605161395
20645477 70 18343310245000035559
21054139 6 18046070362890300590
21065198 48 18260824895975383537
21197605 99 17909819947529888019
21421861 104 18262220214374170401
221490 88 18342173405553053210
2255824 54 18267300932983967532
23559900 14 18338243751074652529
23566358 27 18410845560276069583
3060560 45 18270397162481590820
312423 11 18339068384890468993
33824 294 18340486660406307240
3421961 26 18339079392896813114
4409770 3 17118606311956481092
474 4 18197214741693165893
5104073 3 18409163346678517713
7097593 13 18334292114990430641
7164475 11 18410858793419175937
7364860 26 18410571786597947392
8272917 22 18410569565830628749
9709674 26 18343015597374582539

> <PUBCHEM_SHAPE_MULTIPOLES>
389
9.73
3.44
0.92
11.03
0.9
0
2.62
0.72
-4.89
-0.6
0.43
0.2
-0.96

> <PUBCHEM_SHAPE_SELFOVERLAP>
823.069

> <PUBCHEM_SHAPE_VOLUME>
215.4

> <PUBCHEM_COORDINATE_TYPE>
2
5
10

$$$$

