17395451
  -OEChem-06241222503D

 27 29  0     0  0  0  0  0  0999 V2000
   -2.4671    1.5339    0.0452 S   0  0  0  0  0  0  0  0  0  0  0  0
    4.6765    0.2871    0.6924 S   0  0  0  0  0  0  0  0  0  0  0  0
   -0.9604   -2.0936   -0.0287 O   0  0  0  0  0  0  0  0  0  0  0  0
    0.8312   -3.5615   -0.0818 O   0  0  0  0  0  0  0  0  0  0  0  0
    0.1397   -0.1137   -0.0138 N   0  0  0  0  0  0  0  0  0  0  0  0
   -2.2953   -0.1695    0.0210 C   0  0  0  0  0  0  0  0  0  0  0  0
   -0.9987   -0.7298   -0.0061 C   0  0  0  0  0  0  0  0  0  0  0  0
   -4.1753    1.4156    0.0674 C   0  0  0  0  0  0  0  0  0  0  0  0
    1.0461   -1.1356   -0.0444 C   0  0  0  0  0  0  0  0  0  0  0  0
   -3.5138   -0.8122    0.0294 C   0  0  0  0  0  0  0  0  0  0  0  0
   -4.6029    0.1061    0.0562 C   0  0  0  0  0  0  0  0  0  0  0  0
    2.3751   -1.0236   -0.0636 C   0  0  0  0  0  0  0  0  0  0  0  0
    0.3582   -2.4439   -0.0550 C   0  0  0  0  0  0  0  0  0  0  0  0
    3.1365    0.2394   -0.0549 C   0  0  0  0  0  0  0  0  0  0  0  0
   -4.9899    2.6497    0.0910 C   0  0  0  0  0  0  0  0  0  0  0  0
    2.7812    1.4601   -0.5853 C   0  0  0  0  0  0  0  0  0  0  0  0
    3.7868    2.4475   -0.3757 C   0  0  0  0  0  0  0  0  0  0  0  0
    4.8721    1.9440    0.3069 C   0  0  0  0  0  0  0  0  0  0  0  0
   -3.6328   -1.8883    0.0165 H   0  0  0  0  0  0  0  0  0  0  0  0
   -5.6457   -0.1847    0.0660 H   0  0  0  0  0  0  0  0  0  0  0  0
    2.9738   -1.9330   -0.0515 H   0  0  0  0  0  0  0  0  0  0  0  0
   -4.7704    3.2476    0.9820 H   0  0  0  0  0  0  0  0  0  0  0  0
   -4.7974    3.2637   -0.7951 H   0  0  0  0  0  0  0  0  0  0  0  0
   -6.0598    2.4157    0.1051 H   0  0  0  0  0  0  0  0  0  0  0  0
    1.8559    1.6539   -1.1128 H   0  0  0  0  0  0  0  0  0  0  0  0
    3.7188    3.4742   -0.7112 H   0  0  0  0  0  0  0  0  0  0  0  0
    5.7708    2.4697    0.5971 H   0  0  0  0  0  0  0  0  0  0  0  0
  1  6  1  0  0  0  0
  1  8  1  0  0  0  0
  2 14  1  0  0  0  0
  2 18  1  0  0  0  0
  3  7  1  0  0  0  0
  3 13  1  0  0  0  0
  4 13  2  0  0  0  0
  5  7  2  0  0  0  0
  5  9  1  0  0  0  0
  6  7  1  0  0  0  0
  6 10  2  0  0  0  0
  8 11  2  0  0  0  0
  8 15  1  0  0  0  0
  9 12  2  0  0  0  0
  9 13  1  0  0  0  0
 10 11  1  0  0  0  0
 10 19  1  0  0  0  0
 11 20  1  0  0  0  0
 12 14  1  0  0  0  0
 12 21  1  0  0  0  0
 14 16  2  0  0  0  0
 15 22  1  0  0  0  0
 15 23  1  0  0  0  0
 15 24  1  0  0  0  0
 16 17  1  0  0  0  0
 16 25  1  0  0  0  0
 17 18  2  0  0  0  0
 17 26  1  0  0  0  0
 18 27  1  0  0  0  0
M  END
> <PUBCHEM_COMPOUND_CID>
17395451

> <PUBCHEM_CONFORMER_RMSD>
0.6

> <PUBCHEM_CONFORMER_DIVERSEORDER>
1
20
18
21
2
16
4
19
11
22
7
9
15
5
12
14
23
6
13
3
10
17
8
24

> <PUBCHEM_MMFF94_PARTIAL_CHARGES>
24
1 -0.08
10 -0.15
11 -0.15
12 -0.11
13 0.71
14 -0.01
15 0.18
16 -0.15
17 -0.15
18 -0.11
19 0.15
2 -0.08
20 0.15
21 0.15
25 0.15
26 0.15
27 0.15
3 -0.3
4 -0.57
5 -0.62
6 -0.05
7 0.69
8 -0.14
9 0.19

> <PUBCHEM_EFFECTIVE_ROTOR_COUNT>
2.2

> <PUBCHEM_PHARMACOPHORE_FEATURES>
4
1 4 acceptor
5 1 6 8 10 11 rings
5 2 14 16 17 18 rings
5 3 5 7 9 13 rings

> <PUBCHEM_HEAVY_ATOM_COUNT>
18

> <PUBCHEM_ATOM_DEF_STEREO_COUNT>
0

> <PUBCHEM_ATOM_UDEF_STEREO_COUNT>
0

> <PUBCHEM_BOND_DEF_STEREO_COUNT>
1

> <PUBCHEM_BOND_UDEF_STEREO_COUNT>
0

> <PUBCHEM_ISOTOPIC_ATOM_COUNT>
0

> <PUBCHEM_COMPONENT_COUNT>
1

> <PUBCHEM_CACTVS_TAUTO_COUNT>
1

> <PUBCHEM_CONFORMER_ID>
01096EFB00000001

> <PUBCHEM_MMFF94_ENERGY>
28.0086

> <PUBCHEM_FEATURE_SELFOVERLAP>
20.297

> <PUBCHEM_SHAPE_FINGERPRINT>
10411042 1 17402049397206976383
10498660 4 18408037433517844937
12107183 9 18341626914858426402
12173636 292 18265618680208937510
122479 349 18342173319880703578
12390115 104 18263626425142348713
12403259 118 18342746182286269896
12403259 327 16343696625695892008
12633257 1 16056593227302918180
12769317 202 18335994167422277225
12788726 201 17267766686625789506
13103583 49 11671786026414751773
13583140 156 17060070202594946323
13785724 45 17907586075315923530
138480 1 17834394896988474342
13955234 65 18195803196760385067
13965767 371 18131360721466573084
14123255 52 18410012126119723022
14252887 29 12031788093558563792
14415576 193 18410290354243725735
14767858 380 18190759552677649751
14848178 96 18336265729672491081
15196674 1 18410855460154892833
15342168 16 18342454824663820253
1741750 31 18337952277635596802
17810953 82 18339921618693439228
17834072 32 18410854352106097480
1798214 55 18410291406542556540
18186145 218 18187629332587149950
18222031 100 11383831537102163513
193927 3 11600009881204117192
19784866 34 18407760348002595897
19784866 9 18337394940961630746
204376 136 18410571760416693491
20645477 56 18264485092626898904
20715895 44 18268154347486599129
212916 134 18262254230831503786
21452121 103 18410577331295101594
21524375 3 18335139769699169302
21709351 56 18337398260961119463
23227448 37 18263082123910364781
23402539 116 18261401005239179364
235170 7 15502371231606297725
23558518 356 18128534860762081034
23559900 14 18192996152032705731
245318 6 17701520832169339476
2916195 48 18041007180954518880
335352 9 18410856577779813470
350125 39 18340486785377031788
394222 165 18342182197341079114
474 4 18411418440246633089
474229 33 18339359644045675787
5104073 3 18199461237965396827
6328613 192 18270674269983113020
6333272 397 18411698777030746898
633830 44 18334577974880837679
7064713 232 18341052934622646596
7364860 26 18193274315373301462
7808743 9 18123189009547499728
7970288 3 9439410116084439408
84936 182 18261111927917231824
960060 61 6843919486005058296
9981440 41 18412826867566343395

> <PUBCHEM_SHAPE_MULTIPOLES>
361.41
10.8
3.2
0.68
1.34
1.1
0.02
-9.37
1.05
-0.27
-0.17
-0.26
-0.1
-0.22

> <PUBCHEM_SHAPE_SELFOVERLAP>
769.022

> <PUBCHEM_SHAPE_VOLUME>
204

> <PUBCHEM_COORDINATE_TYPE>
2
5
10

$$$$

