583144
  -OEChem-06241222443D

 25 25  0     0  0  0  0  0  0999 V2000
    4.6886    0.0715    0.2188 O   0  0  0  0  0  0  0  0  0  0  0  0
    2.9352    1.4774   -0.1008 O   0  0  0  0  0  0  0  0  0  0  0  0
    0.1784   -0.5571   -0.3635 C   0  0  0  0  0  0  0  0  0  0  0  0
   -1.2388   -0.1846   -0.1261 C   0  0  0  0  0  0  0  0  0  0  0  0
    1.0720   -0.4584    0.6416 C   0  0  0  0  0  0  0  0  0  0  0  0
    0.5172   -1.0355   -1.7494 C   0  0  0  0  0  0  0  0  0  0  0  0
    2.5256   -0.8268    0.5921 C   0  0  0  0  0  0  0  0  0  0  0  0
   -1.6322    1.1198   -0.3476 C   0  0  0  0  0  0  0  0  0  0  0  0
   -2.1200   -1.1537    0.3091 C   0  0  0  0  0  0  0  0  0  0  0  0
   -2.9638    1.4700   -0.1243 C   0  0  0  0  0  0  0  0  0  0  0  0
   -3.4515   -0.8032    0.5323 C   0  0  0  0  0  0  0  0  0  0  0  0
   -3.8734    0.5086    0.3156 C   0  0  0  0  0  0  0  0  0  0  0  0
    3.3626    0.3719    0.2022 C   0  0  0  0  0  0  0  0  0  0  0  0
    0.7299   -0.0906    1.6088 H   0  0  0  0  0  0  0  0  0  0  0  0
    2.7142   -1.6416   -0.1130 H   0  0  0  0  0  0  0  0  0  0  0  0
    2.8371   -1.1633    1.5871 H   0  0  0  0  0  0  0  0  0  0  0  0
    0.0799   -2.0237   -1.9272 H   0  0  0  0  0  0  0  0  0  0  0  0
    0.1187   -0.3447   -2.5011 H   0  0  0  0  0  0  0  0  0  0  0  0
    1.5930   -1.1053   -1.9301 H   0  0  0  0  0  0  0  0  0  0  0  0
   -0.9319    1.8764   -0.6907 H   0  0  0  0  0  0  0  0  0  0  0  0
   -1.8022   -2.1784    0.4803 H   0  0  0  0  0  0  0  0  0  0  0  0
   -3.2924    2.4914   -0.2931 H   0  0  0  0  0  0  0  0  0  0  0  0
   -4.1600   -1.5518    0.8747 H   0  0  0  0  0  0  0  0  0  0  0  0
   -4.9102    0.7812    0.4894 H   0  0  0  0  0  0  0  0  0  0  0  0
    5.2406    0.8413   -0.0363 H   0  0  0  0  0  0  0  0  0  0  0  0
  1 13  1  0  0  0  0
  1 25  1  0  0  0  0
  2 13  2  0  0  0  0
  3  4  1  0  0  0  0
  3  5  2  0  0  0  0
  3  6  1  0  0  0  0
  4  8  2  0  0  0  0
  4  9  1  0  0  0  0
  5  7  1  0  0  0  0
  5 14  1  0  0  0  0
  6 17  1  0  0  0  0
  6 18  1  0  0  0  0
  6 19  1  0  0  0  0
  7 13  1  0  0  0  0
  7 15  1  0  0  0  0
  7 16  1  0  0  0  0
  8 10  1  0  0  0  0
  8 20  1  0  0  0  0
  9 11  2  0  0  0  0
  9 21  1  0  0  0  0
 10 12  2  0  0  0  0
 10 22  1  0  0  0  0
 11 12  1  0  0  0  0
 11 23  1  0  0  0  0
 12 24  1  0  0  0  0
M  END
> <PUBCHEM_COMPOUND_CID>
583144

> <PUBCHEM_CONFORMER_RMSD>
0.6

> <PUBCHEM_CONFORMER_DIVERSEORDER>
1
7
8
12
9
11
4
2
10
6
5
3

> <PUBCHEM_MMFF94_PARTIAL_CHARGES>
20
1 -0.65
10 -0.15
11 -0.15
12 -0.15
13 0.66
14 0.15
2 -0.57
20 0.15
21 0.15
22 0.15
23 0.15
24 0.15
25 0.5
3 -0.17
4 0.03
5 -0.29
6 0.14
7 0.2
8 -0.15
9 -0.15

> <PUBCHEM_EFFECTIVE_ROTOR_COUNT>
3

> <PUBCHEM_PHARMACOPHORE_FEATURES>
5
1 1 acceptor
1 2 acceptor
1 6 hydrophobe
3 1 2 13 anion
6 4 8 9 10 11 12 rings

> <PUBCHEM_HEAVY_ATOM_COUNT>
13

> <PUBCHEM_ATOM_DEF_STEREO_COUNT>
0

> <PUBCHEM_ATOM_UDEF_STEREO_COUNT>
0

> <PUBCHEM_BOND_DEF_STEREO_COUNT>
0

> <PUBCHEM_BOND_UDEF_STEREO_COUNT>
1

> <PUBCHEM_ISOTOPIC_ATOM_COUNT>
0

> <PUBCHEM_COMPONENT_COUNT>
1

> <PUBCHEM_CACTVS_TAUTO_COUNT>
1

> <PUBCHEM_CONFORMER_ID>
0008E5E800000001

> <PUBCHEM_MMFF94_ENERGY>
30.6727

> <PUBCHEM_FEATURE_SELFOVERLAP>
25.43

> <PUBCHEM_SHAPE_FINGERPRINT>
10608611 8 18339082699879322901
107287 299 17458339775447935639
11031198 65 17095522932772266695
11132069 177 18411141324619666217
12119455 92 17967254212568188646
12251169 10 18273214200853861853
12932764 1 17749967599474352578
13214271 11 18334577941053673469
13296909 8 17489875968113945797
13705890 14 7997963579272873234
13897977 58 18343295942400445132
14943859 89 16950285091885135582
14993402 34 5112003907428717849
15219456 202 18187357787516870543
15279308 16 18187359991066967869
15309172 13 17530964670198957551
15775835 57 18187086126714296448
18186145 218 15719401624325899834
20233049 118 17821733849138528504
20281407 28 10519978275125188773
20528008 55 18273220793997854859
20645464 45 18335414699456684351
20645477 56 17749963167727369264
20671657 53 10015588337222912378
20711983 171 18410014334023102550
20711985 327 16056876931462568902
22485316 2 10375867467942387512
23402539 116 18411426081705830151
23557571 272 18335129891532526575
23559900 14 18267588081686192778
7364860 26 18196091264195416010
76465 3 12103549841606812305
77779 3 18342738529023709466

> <PUBCHEM_SHAPE_MULTIPOLES>
255.8
7.44
1.38
0.98
3.82
0.27
-0.37
1.65
1.56
-0.43
-0.12
0.14
-0.3
0.21

> <PUBCHEM_SHAPE_SELFOVERLAP>
526.118

> <PUBCHEM_SHAPE_VOLUME>
147.6

> <PUBCHEM_COORDINATE_TYPE>
2
5
10

$$$$

