12446
  -OEChem-06261206562D

 40 40  0     0  0  0  0  0  0999 V2000
    3.7320    0.3100    0.0000 O   0  0  0  0  0  0  0  0  0  0  0  0
    8.9282    0.3100    0.0000 O   0  0  0  0  0  0  0  0  0  0  0  0
    4.5981    1.8100    0.0000 O   0  0  0  0  0  0  0  0  0  0  0  0
    8.0622    1.8100    0.0000 O   0  0  0  0  0  0  0  0  0  0  0  0
    6.3301   -1.1900    0.0000 N   0  0  0  0  0  0  0  0  0  0  0  0
    6.3301    0.8100    0.0000 C   0  0  0  0  0  0  0  0  0  0  0  0
    5.4641    0.3100    0.0000 C   0  0  0  0  0  0  0  0  0  0  0  0
    7.1962    0.3100    0.0000 C   0  0  0  0  0  0  0  0  0  0  0  0
    5.4641   -0.6900    0.0000 C   0  0  0  0  0  0  0  0  0  0  0  0
    7.1962   -0.6900    0.0000 C   0  0  0  0  0  0  0  0  0  0  0  0
    6.3301    1.8100    0.0000 C   0  0  0  0  0  0  0  0  0  0  0  0
    4.5981    0.8100    0.0000 C   0  0  0  0  0  0  0  0  0  0  0  0
    8.0622    0.8100    0.0000 C   0  0  0  0  0  0  0  0  0  0  0  0
    4.5981   -1.1900    0.0000 C   0  0  0  0  0  0  0  0  0  0  0  0
    8.0622   -1.1900    0.0000 C   0  0  0  0  0  0  0  0  0  0  0  0
    2.8660    0.8100    0.0000 C   0  0  0  0  0  0  0  0  0  0  0  0
    9.7942    0.8100    0.0000 C   0  0  0  0  0  0  0  0  0  0  0  0
    2.0000    0.3100    0.0000 C   0  0  0  0  0  0  0  0  0  0  0  0
   10.6603    0.3100    0.0000 C   0  0  0  0  0  0  0  0  0  0  0  0
    6.8671    1.1200    0.0000 H   0  0  0  0  0  0  0  0  0  0  0  0
    6.9501    1.8100    0.0000 H   0  0  0  0  0  0  0  0  0  0  0  0
    6.3301    2.4300    0.0000 H   0  0  0  0  0  0  0  0  0  0  0  0
    5.7101    1.8100    0.0000 H   0  0  0  0  0  0  0  0  0  0  0  0
    6.3301   -1.8100    0.0000 H   0  0  0  0  0  0  0  0  0  0  0  0
    7.7522   -1.7269    0.0000 H   0  0  0  0  0  0  0  0  0  0  0  0
    8.5991   -1.5000    0.0000 H   0  0  0  0  0  0  0  0  0  0  0  0
    8.3722   -0.6531    0.0000 H   0  0  0  0  0  0  0  0  0  0  0  0
    4.2881   -0.6531    0.0000 H   0  0  0  0  0  0  0  0  0  0  0  0
    4.0611   -1.5000    0.0000 H   0  0  0  0  0  0  0  0  0  0  0  0
    4.9081   -1.7269    0.0000 H   0  0  0  0  0  0  0  0  0  0  0  0
    3.2646    1.2850    0.0000 H   0  0  0  0  0  0  0  0  0  0  0  0
    2.4675    1.2850    0.0000 H   0  0  0  0  0  0  0  0  0  0  0  0
   10.1928    1.2850    0.0000 H   0  0  0  0  0  0  0  0  0  0  0  0
    9.3957    1.2850    0.0000 H   0  0  0  0  0  0  0  0  0  0  0  0
    1.6900    0.8469    0.0000 H   0  0  0  0  0  0  0  0  0  0  0  0
    1.4631    0.0000    0.0000 H   0  0  0  0  0  0  0  0  0  0  0  0
    2.3100   -0.2269    0.0000 H   0  0  0  0  0  0  0  0  0  0  0  0
   10.3503   -0.2269    0.0000 H   0  0  0  0  0  0  0  0  0  0  0  0
   11.1972    0.0000    0.0000 H   0  0  0  0  0  0  0  0  0  0  0  0
   10.9703    0.8469    0.0000 H   0  0  0  0  0  0  0  0  0  0  0  0
  1 12  1  0  0  0  0
  1 16  1  0  0  0  0
  2 13  1  0  0  0  0
  2 17  1  0  0  0  0
  3 12  2  0  0  0  0
  4 13  2  0  0  0  0
  5  9  1  0  0  0  0
  5 10  1  0  0  0  0
  5 24  1  0  0  0  0
  6  7  1  0  0  0  0
  6  8  1  0  0  0  0
  6 11  1  0  0  0  0
  6 20  1  0  0  0  0
  7  9  2  0  0  0  0
  7 12  1  0  0  0  0
  8 10  2  0  0  0  0
  8 13  1  0  0  0  0
  9 14  1  0  0  0  0
 10 15  1  0  0  0  0
 11 21  1  0  0  0  0
 11 22  1  0  0  0  0
 11 23  1  0  0  0  0
 14 28  1  0  0  0  0
 14 29  1  0  0  0  0
 14 30  1  0  0  0  0
 15 25  1  0  0  0  0
 15 26  1  0  0  0  0
 15 27  1  0  0  0  0
 16 18  1  0  0  0  0
 16 31  1  0  0  0  0
 16 32  1  0  0  0  0
 17 19  1  0  0  0  0
 17 33  1  0  0  0  0
 17 34  1  0  0  0  0
 18 35  1  0  0  0  0
 18 36  1  0  0  0  0
 18 37  1  0  0  0  0
 19 38  1  0  0  0  0
 19 39  1  0  0  0  0
 19 40  1  0  0  0  0
M  END
> <PUBCHEM_COMPOUND_CID>
12446

> <PUBCHEM_COMPOUND_CANONICALIZED>
1

> <PUBCHEM_CACTVS_COMPLEXITY>
408

> <PUBCHEM_CACTVS_HBOND_ACCEPTOR>
5

> <PUBCHEM_CACTVS_HBOND_DONOR>
1

> <PUBCHEM_CACTVS_ROTATABLE_BOND>
6

> <PUBCHEM_CACTVS_SUBSKEYS>
AAADceByOAAAAAAAAAAAAAAAAAAAAAAAAAAgAAAAAAAAAAAAAAAAHgAQAAAADQihgAICCALABACIAgTQSAAAAAAgAAAACAEAAEgABBIAIAACEAAEkACIIUKIJggKAAAAAAAAAAAAAAAAAAAAAAAAAAAAAA==

> <PUBCHEM_IUPAC_OPENEYE_NAME>
diethyl 2,4,6-trimethyl-1,4-dihydropyridine-3,5-dicarboxylate

> <PUBCHEM_IUPAC_CAS_NAME>
2,4,6-trimethyl-1,4-dihydropyridine-3,5-dicarboxylic acid diethyl ester

> <PUBCHEM_IUPAC_NAME>
diethyl 2,4,6-trimethyl-1,4-dihydropyridine-3,5-dicarboxylate

> <PUBCHEM_IUPAC_SYSTEMATIC_NAME>
diethyl 2,4,6-trimethyl-1,4-dihydropyridine-3,5-dicarboxylate

> <PUBCHEM_IUPAC_TRADITIONAL_NAME>
2,4,6-trimethyl-1,4-dihydropyridine-3,5-dicarboxylic acid diethyl ester

> <PUBCHEM_IUPAC_INCHI>
InChI=1S/C14H21NO4/c1-6-18-13(16)11-8(3)12(14(17)19-7-2)10(5)15-9(11)4/h8,15H,6-7H2,1-5H3

> <PUBCHEM_IUPAC_INCHIKEY>
CDVAIHNNWWJFJW-UHFFFAOYSA-N

> <PUBCHEM_XLOGP3_AA>
2.2

> <PUBCHEM_EXACT_MASS>
267.147058

> <PUBCHEM_MOLECULAR_FORMULA>
C14H21NO4

> <PUBCHEM_MOLECULAR_WEIGHT>
267.32084

> <PUBCHEM_OPENEYE_CAN_SMILES>
CCOC(=O)C1=C(NC(=C(C1C)C(=O)OCC)C)C

> <PUBCHEM_OPENEYE_ISO_SMILES>
CCOC(=O)C1=C(NC(=C(C1C)C(=O)OCC)C)C

> <PUBCHEM_CACTVS_TPSA>
64.6

> <PUBCHEM_MONOISOTOPIC_WEIGHT>
267.147058

> <PUBCHEM_TOTAL_CHARGE>
0

> <PUBCHEM_HEAVY_ATOM_COUNT>
19

> <PUBCHEM_ATOM_DEF_STEREO_COUNT>
0

> <PUBCHEM_ATOM_UDEF_STEREO_COUNT>
0

> <PUBCHEM_BOND_DEF_STEREO_COUNT>
0

> <PUBCHEM_BOND_UDEF_STEREO_COUNT>
0

> <PUBCHEM_ISOTOPIC_ATOM_COUNT>
0

> <PUBCHEM_COMPONENT_COUNT>
1

> <PUBCHEM_CACTVS_TAUTO_COUNT>
3

> <PUBCHEM_COORDINATE_TYPE>
1
5
255

$$$$

