582806
  -OEChem-06241222442D

 42 45  0     0  0  0  0  0  0999 V2000
    8.9367   -0.7419    0.0000 S   0  0  0  0  0  0  0  0  0  0  0  0
    5.5650    0.5799    0.0000 S   0  0  0  0  0  0  0  0  0  0  0  0
    6.3143   -2.8797    0.0000 O   0  0  0  0  0  0  0  0  0  0  0  0
    5.9094   -1.1565    0.0000 N   0  0  0  0  0  0  0  0  0  0  0  0
    7.2518    0.0429    0.0000 N   0  0  0  0  0  0  0  0  0  0  0  0
    8.4367   -2.2807    0.0000 C   0  0  0  0  0  0  0  0  0  0  0  0
    8.7464   -3.2253    0.0000 C   0  0  0  0  0  0  0  0  0  0  0  0
    9.7404   -3.2245    0.0000 C   0  0  0  0  0  0  0  0  0  0  0  0
   10.0484   -2.2793    0.0000 C   0  0  0  0  0  0  0  0  0  0  0  0
    9.2457   -1.6929    0.0000 C   0  0  0  0  0  0  0  0  0  0  0  0
    7.6277   -1.6929    0.0000 C   0  0  0  0  0  0  0  0  0  0  0  0
    7.9367   -0.7419    0.0000 C   0  0  0  0  0  0  0  0  0  0  0  0
    6.6123   -1.9252    0.0000 C   0  0  0  0  0  0  0  0  0  0  0  0
    6.2312   -0.1658    0.0000 C   0  0  0  0  0  0  0  0  0  0  0  0
    4.9320   -1.3682    0.0000 C   0  0  0  0  0  0  0  0  0  0  0  0
    4.2600   -0.6276    0.0000 C   0  0  0  0  0  0  0  0  0  0  0  0
    4.6267   -2.3204    0.0000 C   0  0  0  0  0  0  0  0  0  0  0  0
    3.2827   -0.8393    0.0000 C   0  0  0  0  0  0  0  0  0  0  0  0
    3.6493   -2.5321    0.0000 C   0  0  0  0  0  0  0  0  0  0  0  0
    2.9773   -1.7915    0.0000 C   0  0  0  0  0  0  0  0  0  0  0  0
    5.8777    1.5298    0.0000 C   0  0  0  0  0  0  0  0  0  0  0  0
    2.0000   -2.0032    0.0000 C   0  0  0  0  0  0  0  0  0  0  0  0
    5.2114    2.2755    0.0000 C   0  0  0  0  0  0  0  0  0  0  0  0
    5.5241    3.2253    0.0000 C   0  0  0  0  0  0  0  0  0  0  0  0
    8.1402   -3.3554    0.0000 H   0  0  0  0  0  0  0  0  0  0  0  0
    8.8120   -3.8418    0.0000 H   0  0  0  0  0  0  0  0  0  0  0  0
    9.6758   -3.8411    0.0000 H   0  0  0  0  0  0  0  0  0  0  0  0
   10.3468   -3.3536    0.0000 H   0  0  0  0  0  0  0  0  0  0  0  0
   10.6145   -2.5323    0.0000 H   0  0  0  0  0  0  0  0  0  0  0  0
   10.3595   -1.7430    0.0000 H   0  0  0  0  0  0  0  0  0  0  0  0
    4.4493   -0.0372    0.0000 H   0  0  0  0  0  0  0  0  0  0  0  0
    5.0433   -2.7796    0.0000 H   0  0  0  0  0  0  0  0  0  0  0  0
    2.8660   -0.3801    0.0000 H   0  0  0  0  0  0  0  0  0  0  0  0
    3.4600   -3.1225    0.0000 H   0  0  0  0  0  0  0  0  0  0  0  0
    6.4240    1.2366    0.0000 H   0  0  0  0  0  0  0  0  0  0  0  0
    6.2613    2.0168    0.0000 H   0  0  0  0  0  0  0  0  0  0  0  0
    1.8688   -1.3973    0.0000 H   0  0  0  0  0  0  0  0  0  0  0  0
    1.3940   -2.1344    0.0000 H   0  0  0  0  0  0  0  0  0  0  0  0
    2.1312   -2.6092    0.0000 H   0  0  0  0  0  0  0  0  0  0  0  0
    4.6044    2.1489    0.0000 H   0  0  0  0  0  0  0  0  0  0  0  0
    6.1310    3.3519    0.0000 H   0  0  0  0  0  0  0  0  0  0  0  0
    5.1110    3.6877    0.0000 H   0  0  0  0  0  0  0  0  0  0  0  0
  1 10  1  0  0  0  0
  1 12  1  0  0  0  0
  2 14  1  0  0  0  0
  2 21  1  0  0  0  0
  3 13  2  0  0  0  0
  4 13  1  0  0  0  0
  4 14  1  0  0  0  0
  4 15  1  0  0  0  0
  5 12  1  0  0  0  0
  5 14  2  0  0  0  0
  6  7  1  0  0  0  0
  6 10  2  0  0  0  0
  6 11  1  0  0  0  0
  7  8  1  0  0  0  0
  7 25  1  0  0  0  0
  7 26  1  0  0  0  0
  8  9  1  0  0  0  0
  8 27  1  0  0  0  0
  8 28  1  0  0  0  0
  9 10  1  0  0  0  0
  9 29  1  0  0  0  0
  9 30  1  0  0  0  0
 11 12  2  0  0  0  0
 11 13  1  0  0  0  0
 15 16  2  0  0  0  0
 15 17  1  0  0  0  0
 16 18  1  0  0  0  0
 16 31  1  0  0  0  0
 17 19  2  0  0  0  0
 17 32  1  0  0  0  0
 18 20  2  0  0  0  0
 18 33  1  0  0  0  0
 19 20  1  0  0  0  0
 19 34  1  0  0  0  0
 20 22  1  0  0  0  0
 21 23  1  0  0  0  0
 21 35  1  0  0  0  0
 21 36  1  0  0  0  0
 22 37  1  0  0  0  0
 22 38  1  0  0  0  0
 22 39  1  0  0  0  0
 23 24  2  0  0  0  0
 23 40  1  0  0  0  0
 24 41  1  0  0  0  0
 24 42  1  0  0  0  0
M  END
> <PUBCHEM_COMPOUND_CID>
582806

> <PUBCHEM_COMPOUND_CANONICALIZED>
1

> <PUBCHEM_CACTVS_COMPLEXITY>
542

> <PUBCHEM_CACTVS_HBOND_ACCEPTOR>
4

> <PUBCHEM_CACTVS_HBOND_DONOR>
0

> <PUBCHEM_CACTVS_ROTATABLE_BOND>
4

> <PUBCHEM_CACTVS_SUBSKEYS>
AAADceB7IABgAAAAAAAAAAAAAAAAAaIAAAAwQAAAAAASAEABwAAAHgQAAAAADAiF2ACzwYMAAAisAiVSdACDEIFlChAJiBEAZMgIIDrg3ZGEIYhghADoyUcYiECOiAAAAAAAAAAQAAAAAAAAAAAAAgAAAA==

> <PUBCHEM_IUPAC_OPENEYE_NAME>
3-allylsulfanyl-2-(p-tolyl)-7,8-dihydro-6H-cyclopenta[2,3]thieno[2,4-b]pyrimidin-1-one

> <PUBCHEM_IUPAC_CAS_NAME>
2-(4-methylphenyl)-3-(prop-2-enylthio)-7,8-dihydro-6H-cyclopenta[2,3]thieno[2,4-b]pyrimidin-1-one

> <PUBCHEM_IUPAC_NAME>
2-(4-methylphenyl)-3-prop-2-enylsulfanyl-7,8-dihydro-6H-cyclopenta[2,3]thieno[2,4-b]pyrimidin-1-one

> <PUBCHEM_IUPAC_SYSTEMATIC_NAME>
2-(4-methylphenyl)-3-prop-2-enylsulfanyl-7,8-dihydro-6H-cyclopenta[2,3]thieno[2,4-b]pyrimidin-1-one

> <PUBCHEM_IUPAC_TRADITIONAL_NAME>
3-(allylthio)-2-(p-tolyl)-7,8-dihydro-6H-cyclopenta[2,3]thieno[2,4-b]pyrimidin-1-one

> <PUBCHEM_IUPAC_INCHI>
InChI=1S/C19H18N2OS2/c1-3-11-23-19-20-17-16(14-5-4-6-15(14)24-17)18(22)21(19)13-9-7-12(2)8-10-13/h3,7-10H,1,4-6,11H2,2H3

> <PUBCHEM_IUPAC_INCHIKEY>
RINRMWNNDGVGPD-UHFFFAOYSA-N

> <PUBCHEM_XLOGP3_AA>
5.1

> <PUBCHEM_EXACT_MASS>
354.086055

> <PUBCHEM_MOLECULAR_FORMULA>
C19H18N2OS2

> <PUBCHEM_MOLECULAR_WEIGHT>
354.48902

> <PUBCHEM_OPENEYE_CAN_SMILES>
CC1=CC=C(C=C1)N2C(=O)C3=C(N=C2SCC=C)SC4=C3CCC4

> <PUBCHEM_OPENEYE_ISO_SMILES>
CC1=CC=C(C=C1)N2C(=O)C3=C(N=C2SCC=C)SC4=C3CCC4

> <PUBCHEM_CACTVS_TPSA>
86.2

> <PUBCHEM_MONOISOTOPIC_WEIGHT>
354.086055

> <PUBCHEM_TOTAL_CHARGE>
0

> <PUBCHEM_HEAVY_ATOM_COUNT>
24

> <PUBCHEM_ATOM_DEF_STEREO_COUNT>
0

> <PUBCHEM_ATOM_UDEF_STEREO_COUNT>
0

> <PUBCHEM_BOND_DEF_STEREO_COUNT>
0

> <PUBCHEM_BOND_UDEF_STEREO_COUNT>
0

> <PUBCHEM_ISOTOPIC_ATOM_COUNT>
0

> <PUBCHEM_COMPONENT_COUNT>
1

> <PUBCHEM_CACTVS_TAUTO_COUNT>
1

> <PUBCHEM_COORDINATE_TYPE>
1
5
255

> <PUBCHEM_BONDANNOTATIONS>
1  10  8
1  12  8
11  12  8
11  13  8
15  16  8
15  17  8
16  18  8
17  19  8
18  20  8
19  20  8
4  13  8
4  14  8
5  12  8
5  14  8
6  10  8
6  11  8

$$$$

