51090996
  -OEChem-06241223013D

 53 55  0     1  0  0  0  0  0999 V2000
    0.3710   -1.2657   -0.9916 O   0  0  0  0  0  0  0  0  0  0  0  0
   -2.9238    1.5736    0.8827 O   0  0  0  0  0  0  0  0  0  0  0  0
    3.6608   -0.5910   -0.4367 O   0  0  0  0  0  0  0  0  0  0  0  0
   -1.8708   -1.6729   -0.5103 N   0  0  0  0  0  0  0  0  0  0  0  0
   -1.7284    1.9813   -1.0730 N   0  0  0  0  0  0  0  0  0  0  0  0
   -0.0477   -2.7766    0.7411 C   0  0  0  0  0  0  0  0  0  0  0  0
    0.0653   -2.2720    2.1497 C   0  0  0  0  0  0  0  0  0  0  0  0
    1.3044   -2.5868    1.3640 C   0  0  0  0  0  0  0  0  0  0  0  0
   -0.4935   -1.8373   -0.3326 C   0  0  0  0  0  0  0  0  0  0  0  0
   -3.3692    0.2342   -1.0454 C   0  0  1  0  0  0  0  0  0  0  0  0
   -2.3697   -0.7969   -1.5736 C   0  0  0  0  0  0  0  0  0  0  0  0
   -2.9081   -2.3517    0.2723 C   0  0  0  0  0  0  0  0  0  0  0  0
   -4.4471   -0.4004   -0.1615 C   0  0  0  0  0  0  0  0  0  0  0  0
   -3.8581   -1.3355    0.8967 C   0  0  0  0  0  0  0  0  0  0  0  0
   -2.6601    1.3212   -0.2901 C   0  0  0  0  0  0  0  0  0  0  0  0
   -0.9276    3.0827   -0.5893 C   0  0  0  0  0  0  0  0  0  0  0  0
    0.3660    2.6152    0.0124 C   0  0  0  0  0  0  0  0  0  0  0  0
    1.2742    1.8922   -0.7612 C   0  0  0  0  0  0  0  0  0  0  0  0
    0.6597    2.9038    1.3452 C   0  0  0  0  0  0  0  0  0  0  0  0
    2.4761    1.4580   -0.2021 C   0  0  0  0  0  0  0  0  0  0  0  0
    1.8614    2.4692    1.9044 C   0  0  0  0  0  0  0  0  0  0  0  0
    2.7698    1.7466    1.1308 C   0  0  0  0  0  0  0  0  0  0  0  0
    3.4471    0.6844   -1.0287 C   0  0  0  0  0  0  0  0  0  0  0  0
    4.5816   -1.3673   -1.1906 C   0  0  0  0  0  0  0  0  0  0  0  0
    4.7668   -2.7081   -0.5127 C   0  0  0  0  0  0  0  0  0  0  0  0
   -0.3538   -3.8090    0.5994 H   0  0  0  0  0  0  0  0  0  0  0  0
    1.8624   -3.4739    1.6382 H   0  0  0  0  0  0  0  0  0  0  0  0
    1.9198   -1.7471    1.0746 H   0  0  0  0  0  0  0  0  0  0  0  0
   -0.1554   -1.2297    2.3460 H   0  0  0  0  0  0  0  0  0  0  0  0
   -0.2110   -2.9470    2.9503 H   0  0  0  0  0  0  0  0  0  0  0  0
   -3.8638    0.7169   -1.8988 H   0  0  0  0  0  0  0  0  0  0  0  0
   -2.8776   -1.4513   -2.2939 H   0  0  0  0  0  0  0  0  0  0  0  0
   -1.5343   -0.3447   -2.1147 H   0  0  0  0  0  0  0  0  0  0  0  0
   -3.4507   -3.0147   -0.4120 H   0  0  0  0  0  0  0  0  0  0  0  0
   -2.4793   -2.9785    1.0566 H   0  0  0  0  0  0  0  0  0  0  0  0
   -5.0705    0.3612    0.3221 H   0  0  0  0  0  0  0  0  0  0  0  0
   -5.1197   -0.9857   -0.8023 H   0  0  0  0  0  0  0  0  0  0  0  0
   -4.6708   -1.8615    1.4106 H   0  0  0  0  0  0  0  0  0  0  0  0
   -3.3236   -0.7609    1.6611 H   0  0  0  0  0  0  0  0  0  0  0  0
   -1.6255    1.7321   -2.0517 H   0  0  0  0  0  0  0  0  0  0  0  0
   -0.7202    3.7434   -1.4385 H   0  0  0  0  0  0  0  0  0  0  0  0
   -1.5179    3.6547    0.1356 H   0  0  0  0  0  0  0  0  0  0  0  0
    1.0453    1.6716   -1.8011 H   0  0  0  0  0  0  0  0  0  0  0  0
   -0.0384    3.4650    1.9605 H   0  0  0  0  0  0  0  0  0  0  0  0
    2.0900    2.6936    2.9422 H   0  0  0  0  0  0  0  0  0  0  0  0
    3.7036    1.4152    1.5774 H   0  0  0  0  0  0  0  0  0  0  0  0
    4.3936    1.2362   -1.0858 H   0  0  0  0  0  0  0  0  0  0  0  0
    3.0716    0.5499   -2.0504 H   0  0  0  0  0  0  0  0  0  0  0  0
    5.5442   -0.8470   -1.2475 H   0  0  0  0  0  0  0  0  0  0  0  0
    4.1975   -1.5176   -2.2058 H   0  0  0  0  0  0  0  0  0  0  0  0
    5.4857   -3.3258   -1.0582 H   0  0  0  0  0  0  0  0  0  0  0  0
    3.8145   -3.2452   -0.4550 H   0  0  0  0  0  0  0  0  0  0  0  0
    5.1211   -2.5761    0.5149 H   0  0  0  0  0  0  0  0  0  0  0  0
  1  9  2  0  0  0  0
  2 15  2  0  0  0  0
  3 23  1  0  0  0  0
  3 24  1  0  0  0  0
  4  9  1  0  0  0  0
  4 11  1  0  0  0  0
  4 12  1  0  0  0  0
  5 15  1  0  0  0  0
  5 16  1  0  0  0  0
  5 40  1  0  0  0  0
  6  7  1  0  0  0  0
  6  8  1  0  0  0  0
  6  9  1  0  0  0  0
  6 26  1  0  0  0  0
  7  8  1  0  0  0  0
  7 29  1  0  0  0  0
  7 30  1  0  0  0  0
  8 27  1  0  0  0  0
  8 28  1  0  0  0  0
 10 11  1  0  0  0  0
 10 13  1  0  0  0  0
 10 15  1  0  0  0  0
 10 31  1  0  0  0  0
 11 32  1  0  0  0  0
 11 33  1  0  0  0  0
 12 14  1  0  0  0  0
 12 34  1  0  0  0  0
 12 35  1  0  0  0  0
 13 14  1  0  0  0  0
 13 36  1  0  0  0  0
 13 37  1  0  0  0  0
 14 38  1  0  0  0  0
 14 39  1  0  0  0  0
 16 17  1  0  0  0  0
 16 41  1  0  0  0  0
 16 42  1  0  0  0  0
 17 18  2  0  0  0  0
 17 19  1  0  0  0  0
 18 20  1  0  0  0  0
 18 43  1  0  0  0  0
 19 21  2  0  0  0  0
 19 44  1  0  0  0  0
 20 22  2  0  0  0  0
 20 23  1  0  0  0  0
 21 22  1  0  0  0  0
 21 45  1  0  0  0  0
 22 46  1  0  0  0  0
 23 47  1  0  0  0  0
 23 48  1  0  0  0  0
 24 25  1  0  0  0  0
 24 49  1  0  0  0  0
 24 50  1  0  0  0  0
 25 51  1  0  0  0  0
 25 52  1  0  0  0  0
 25 53  1  0  0  0  0
M  END
> <PUBCHEM_COMPOUND_CID>
51090996

> <PUBCHEM_CONFORMER_RMSD>
1.2

> <PUBCHEM_CONFORMER_DIVERSEORDER>
1
86
136
18
169
56
55
173
187
21
179
164
160
81
128
125
114
176
63
145
12
131
73
85
151
43
23
80
101
65
147
126
119
139
59
104
39
45
111
123
8
92
90
24
190
87
171
174
121
47
155
13
88
148
192
50
200
106
146
22
83
68
168
178
107
163
54
82
175
195
60
94
149
137
105
109
191
72
172
153
157
74
108
11
117
203
159
61
96
182
38
144
186
152
4
53
57
20
115
99
209
84
58
69
206
113
48
120
194
129
161
193
208
202
127
138
91
17
29
26
49
170
19
70
103
142
130
150
98
71
207
52
162
110
25
205
133
78
132
112
62
36
34
140
188
181
77
197
89
198
67
28
95
167
33
143
116
51
184
3
118
165
158
75
156
177
14
180
100
210
183
166
76
97
2
42
79
41
196
31
141
66
46
15
93
30
189
37
122
44
185
16
204
35
154
124
27
5
201
10
134
135
199
102
32
64
9
7
40
6

> <PUBCHEM_MMFF94_PARTIAL_CHARGES>
32
1 -0.57
10 0.06
11 0.3
12 0.3
15 0.57
16 0.44
17 -0.14
18 -0.15
19 -0.15
2 -0.57
20 -0.14
21 -0.15
22 -0.15
23 0.42
24 0.28
26 0.1
27 0.1
28 0.1
29 0.1
3 -0.56
30 0.1
4 -0.66
40 0.37
43 0.15
44 0.15
45 0.15
46 0.15
5 -0.73
6 -0.1
7 -0.2
8 -0.2
9 0.63

> <PUBCHEM_EFFECTIVE_ROTOR_COUNT>
10.8

> <PUBCHEM_PHARMACOPHORE_FEATURES>
6
1 1 acceptor
1 2 acceptor
1 3 acceptor
1 5 donor
6 17 18 19 20 21 22 rings
6 4 10 11 12 13 14 rings

> <PUBCHEM_HEAVY_ATOM_COUNT>
25

> <PUBCHEM_ATOM_DEF_STEREO_COUNT>
0

> <PUBCHEM_ATOM_UDEF_STEREO_COUNT>
1

> <PUBCHEM_BOND_DEF_STEREO_COUNT>
0

> <PUBCHEM_BOND_UDEF_STEREO_COUNT>
0

> <PUBCHEM_ISOTOPIC_ATOM_COUNT>
0

> <PUBCHEM_COMPONENT_COUNT>
1

> <PUBCHEM_CACTVS_TAUTO_COUNT>
2

> <PUBCHEM_CONFORMER_ID>
030B963400000001

> <PUBCHEM_MMFF94_ENERGY>
46.2255

> <PUBCHEM_FEATURE_SELFOVERLAP>
30.446

> <PUBCHEM_SHAPE_FINGERPRINT>
1100329 8 17547577436148642662
13140716 1 18336263530538173248
13402501 40 18337670806964260084
1361 2 16391272163096646286
14251740 79 18195794383835217846
14251745 187 18410858720282918984
14251751 93 18200029684997064340
14251757 17 18334861653676670834
14931854 50 18270116945729740886
15209289 33 18409161108488969661
17093844 170 18268435629152501024
19591789 44 18412260648915819367
19930381 70 17832707868083730223
20905425 154 18266746955079538485
21141583 151 18262518208032328750
23559900 14 18265055734872775908
35225 105 16700340694133800035
9981440 41 17251199215116007904

> <PUBCHEM_SHAPE_MULTIPOLES>
486.92
7.61
4.42
1.64
1.74
0.38
0.55
-3.53
-2.09
1.73
1.27
0.45
-0.08
1.27

> <PUBCHEM_SHAPE_SELFOVERLAP>
1006.74

> <PUBCHEM_SHAPE_VOLUME>
277.9

> <PUBCHEM_COORDINATE_TYPE>
2
5
10

$$$$

