5485
  -OEChem-06261200423D

 46 49  0     1  0  0  0  0  0999 V2000
    2.3647    2.3278   -1.1776 S   0  0  0  0  0  0  0  0  0  0  0  0
    2.1037   -1.8247    1.5174 S   0  0  0  0  0  0  0  0  0  0  0  0
   -2.3406    0.5278   -0.5121 N   0  3  1  0  0  0  0  0  0  0  0  0
   -2.7852   -0.9194   -0.8567 C   0  0  2  0  0  0  0  0  0  0  0  0
   -2.2976    0.7614    1.0078 C   0  0  0  0  0  0  0  0  0  0  0  0
   -0.9335    0.8031   -1.1171 C   0  0  0  0  0  0  0  0  0  0  0  0
   -4.1127   -1.2533   -0.1601 C   0  0  0  0  0  0  0  0  0  0  0  0
   -1.6884   -1.9441   -0.4947 C   0  0  0  0  0  0  0  0  0  0  0  0
   -3.6208    0.4084    1.6765 C   0  0  0  0  0  0  0  0  0  0  0  0
   -4.0892   -1.0007    1.3433 C   0  0  0  0  0  0  0  0  0  0  0  0
   -0.3463   -1.6444   -1.1552 C   0  0  0  0  0  0  0  0  0  0  0  0
   -3.2857    1.5501   -1.1702 C   0  0  0  0  0  0  0  0  0  0  0  0
    0.0877   -0.2516   -0.8135 C   0  0  0  0  0  0  0  0  0  0  0  0
    1.2792    0.0277   -0.2674 C   0  0  0  0  0  0  0  0  0  0  0  0
    1.5979    1.4073    0.0230 C   0  0  0  0  0  0  0  0  0  0  0  0
    2.1861   -1.0647    0.0035 C   0  0  0  0  0  0  0  0  0  0  0  0
    1.3548    2.0859    1.1723 C   0  0  0  0  0  0  0  0  0  0  0  0
    3.1286   -1.5793   -0.8256 C   0  0  0  0  0  0  0  0  0  0  0  0
    1.8160    3.4307    1.0769 C   0  0  0  0  0  0  0  0  0  0  0  0
    3.8260   -2.6526   -0.1996 C   0  0  0  0  0  0  0  0  0  0  0  0
    2.3865    3.6962   -0.1485 C   0  0  0  0  0  0  0  0  0  0  0  0
    3.3688   -2.8916    1.0777 C   0  0  0  0  0  0  0  0  0  0  0  0
   -2.9348   -0.9400   -1.9442 H   0  0  0  0  0  0  0  0  0  0  0  0
   -2.0460    1.8151    1.1730 H   0  0  0  0  0  0  0  0  0  0  0  0
   -1.4902    0.1471    1.4192 H   0  0  0  0  0  0  0  0  0  0  0  0
   -0.6795    1.8194   -0.8074 H   0  0  0  0  0  0  0  0  0  0  0  0
   -1.0728    0.8312   -2.2063 H   0  0  0  0  0  0  0  0  0  0  0  0
   -4.3696   -2.3041   -0.3428 H   0  0  0  0  0  0  0  0  0  0  0  0
   -4.9256   -0.6710   -0.6092 H   0  0  0  0  0  0  0  0  0  0  0  0
   -2.0177   -2.9408   -0.8151 H   0  0  0  0  0  0  0  0  0  0  0  0
   -1.5462   -2.0060    0.5903 H   0  0  0  0  0  0  0  0  0  0  0  0
   -4.3953    1.1301    1.3938 H   0  0  0  0  0  0  0  0  0  0  0  0
   -3.5073    0.5018    2.7631 H   0  0  0  0  0  0  0  0  0  0  0  0
   -3.4344   -1.7294    1.8350 H   0  0  0  0  0  0  0  0  0  0  0  0
   -5.0917   -1.1607    1.7568 H   0  0  0  0  0  0  0  0  0  0  0  0
   -0.4589   -1.7130   -2.2453 H   0  0  0  0  0  0  0  0  0  0  0  0
    0.3509   -2.4394   -0.8832 H   0  0  0  0  0  0  0  0  0  0  0  0
   -2.9161    2.5546   -0.9429 H   0  0  0  0  0  0  0  0  0  0  0  0
   -3.2821    1.3773   -2.2505 H   0  0  0  0  0  0  0  0  0  0  0  0
   -4.2963    1.4273   -0.7792 H   0  0  0  0  0  0  0  0  0  0  0  0
    0.8743    1.6675    2.0479 H   0  0  0  0  0  0  0  0  0  0  0  0
    3.3282   -1.2267   -1.8297 H   0  0  0  0  0  0  0  0  0  0  0  0
    1.7331    4.1659    1.8667 H   0  0  0  0  0  0  0  0  0  0  0  0
    4.6223   -3.2206   -0.6626 H   0  0  0  0  0  0  0  0  0  0  0  0
    2.8148    4.6284   -0.4887 H   0  0  0  0  0  0  0  0  0  0  0  0
    3.7170   -3.6418    1.7735 H   0  0  0  0  0  0  0  0  0  0  0  0
  1 15  1  0  0  0  0
  1 21  1  0  0  0  0
  2 16  1  0  0  0  0
  2 22  1  0  0  0  0
  3  4  1  0  0  0  0
  3  5  1  0  0  0  0
  3  6  1  0  0  0  0
  3 12  1  0  0  0  0
  4  7  1  0  0  0  0
  4  8  1  0  0  0  0
  4 23  1  0  0  0  0
  5  9  1  0  0  0  0
  5 24  1  0  0  0  0
  5 25  1  0  0  0  0
  6 13  1  0  0  0  0
  6 26  1  0  0  0  0
  6 27  1  0  0  0  0
  7 10  1  0  0  0  0
  7 28  1  0  0  0  0
  7 29  1  0  0  0  0
  8 11  1  0  0  0  0
  8 30  1  0  0  0  0
  8 31  1  0  0  0  0
  9 10  1  0  0  0  0
  9 32  1  0  0  0  0
  9 33  1  0  0  0  0
 10 34  1  0  0  0  0
 10 35  1  0  0  0  0
 11 13  1  0  0  0  0
 11 36  1  0  0  0  0
 11 37  1  0  0  0  0
 12 38  1  0  0  0  0
 12 39  1  0  0  0  0
 12 40  1  0  0  0  0
 13 14  2  0  0  0  0
 14 15  1  0  0  0  0
 14 16  1  0  0  0  0
 15 17  2  0  0  0  0
 16 18  2  0  0  0  0
 17 19  1  0  0  0  0
 17 41  1  0  0  0  0
 18 20  1  0  0  0  0
 18 42  1  0  0  0  0
 19 21  2  0  0  0  0
 19 43  1  0  0  0  0
 20 22  2  0  0  0  0
 20 44  1  0  0  0  0
 21 45  1  0  0  0  0
 22 46  1  0  0  0  0
M  CHG  1   3   1
M  END
> <PUBCHEM_COMPOUND_CID>
5485

> <PUBCHEM_CONFORMER_RMSD>
0.6

> <PUBCHEM_CONFORMER_DIVERSEORDER>
13
23
1
35
28
18
36
12
3
27
34
25
9
20
24
33
6
16
32
17
10
26
2
11
19
21
31
14
29
15
5
8
22
30
4
7

> <PUBCHEM_MMFF94_PARTIAL_CHARGES>
24
1 -0.08
11 0.14
12 0.5
13 -0.28
14 0.09
15 -0.01
16 -0.01
17 -0.15
18 -0.15
19 -0.15
2 -0.08
20 -0.15
21 -0.11
22 -0.11
3 -1.01
4 0.5
41 0.15
42 0.15
43 0.15
44 0.15
45 0.15
46 0.15
5 0.5
6 0.64

> <PUBCHEM_EFFECTIVE_ROTOR_COUNT>
3.4

> <PUBCHEM_PHARMACOPHORE_FEATURES>
5
1 3 cation
5 1 15 17 19 21 rings
5 2 16 18 20 22 rings
6 3 4 5 7 9 10 rings
6 3 4 6 8 11 13 rings

> <PUBCHEM_HEAVY_ATOM_COUNT>
22

> <PUBCHEM_ATOM_DEF_STEREO_COUNT>
0

> <PUBCHEM_ATOM_UDEF_STEREO_COUNT>
2

> <PUBCHEM_BOND_DEF_STEREO_COUNT>
0

> <PUBCHEM_BOND_UDEF_STEREO_COUNT>
0

> <PUBCHEM_ISOTOPIC_ATOM_COUNT>
0

> <PUBCHEM_COMPONENT_COUNT>
1

> <PUBCHEM_CACTVS_TAUTO_COUNT>
1

> <PUBCHEM_CONFORMER_ID>
0000156D0000000D

> <PUBCHEM_MMFF94_ENERGY>
57.1974

> <PUBCHEM_FEATURE_SELFOVERLAP>
25.43

> <PUBCHEM_SHAPE_FINGERPRINT>
10366900 7 18129370519241098299
104564 63 17687469383130170608
11578080 2 17917161566608288596
12160290 23 17326626198487019108
12166972 35 17968673712713987523
12403260 363 18260834838946194237
12422481 6 18046945729656266808
12553582 1 18263922318646220438
12633257 1 18119505851831430657
12644460 14 18338227176742966858
12707595 3 18341333400118245766
12714826 92 17915178146537191150
12788726 201 17478344483398429522
13009979 54 17676755578478076058
13134695 92 18336839700585665204
13140716 1 18119811571608746624
133893 2 18053696644634577982
13533116 47 18339635643281897787
13583140 156 18344146994982137935
13681431 1 18410863195923632476
13878862 14 18338249210774982901
14022347 108 17974546289880117126
14178342 30 17837208177918762343
14223421 5 18268431235316262311
14466204 15 17977101585300200801
14787075 74 18201708562376049802
14866123 147 16465023683503607747
14955137 171 18190160430072031854
15238133 3 17906433769496197557
15295992 7 18341614884397099669
15375462 189 18271237339404145642
15842332 3 17822578192332458463
16945 1 18051985718647667933
17349148 13 17676783053763611823
17980427 23 17241057594501827753
1813 80 18189607414462349438
18785283 64 18199746939058544264
19078846 21 18262224642226918088
192875 21 17968392250590822677
20600515 1 18045498879201034140
20671657 1 18261951834689337628
20681677 274 18341045229693839307
20681677 76 18341902883180855925
20739085 24 18260542377126674762
21033648 29 17315095469374783979
21041028 32 18264480853241295032
21524375 3 17974570191531303260
21731228 192 17835252146965174536
21864079 5 17677032565609627257
2255824 54 18411132498773141854
23366157 5 18271813376090866780
23559900 14 17703791410043323839
2637199 183 17680122132563571116
31174 14 18412259515255183405
312423 11 18187362082837756871
3286 77 18412536631030233015
350125 39 18337670810932290397
4175511 71 18263077867808744630
4409770 3 17621891206730225444
458136 41 18124866872438048980
469060 322 17405423304776752859
474 4 18123751941830207548
6049 1 18060139842829047445
6442390 28 17691393123475645072
6992083 37 17896053189691391246
7097593 13 18408324397267516034
7288768 16 16959864904701948513
7364860 26 18335989658043629046
7615 1 17749398022771262239
81228 2 17615129219015052508
90316 7 18048324632605696754
9981440 41 17832155917651687744

> <PUBCHEM_SHAPE_MULTIPOLES>
455.47
7.22
4.02
1.54
4.86
2.19
-0.35
-2.97
-1.19
-5.35
-0.58
0.45
0.07
-0.22

> <PUBCHEM_SHAPE_SELFOVERLAP>
954.165

> <PUBCHEM_SHAPE_VOLUME>
260

> <PUBCHEM_COORDINATE_TYPE>
2
5
10

$$$$

