5692
  -OEChem-06261200492D

150160  0     1  0  0  0  0  0999 V2000
    9.1380    3.0399    0.0000 O   0  0  0  0  0  0  0  0  0  0  0  0
   15.9964   -3.0399    0.0000 O   0  0  0  0  0  0  0  0  0  0  0  0
   16.8450   -4.5498    0.0000 O   0  0  0  0  0  0  0  0  0  0  0  0
    8.2894    4.5498    0.0000 O   0  0  0  0  0  0  0  0  0  0  0  0
   11.7533    4.5097    0.0000 O   0  0  0  0  0  0  0  0  0  0  0  0
   13.3811   -4.5097    0.0000 O   0  0  0  0  0  0  0  0  0  0  0  0
   10.2070    7.1090    0.0000 O   0  0  0  0  0  0  0  0  0  0  0  0
   15.4307   -7.9731    0.0000 O   0  0  0  0  0  0  0  0  0  0  0  0
    6.5410    4.5844    0.0000 O   0  0  0  0  0  0  0  0  0  0  0  0
   18.5934   -4.5844    0.0000 O   0  0  0  0  0  0  0  0  0  0  0  0
   18.5934   -8.5844    0.0000 O   0  0  0  0  0  0  0  0  0  0  0  0
    6.5410    8.5844    0.0000 O   0  0  0  0  0  0  0  0  0  0  0  0
   14.4240   -6.2449    0.0000 O   0  0  0  0  0  0  0  0  0  0  0  0
   10.7037    7.9770    0.0000 O   0  0  0  0  0  0  0  0  0  0  0  0
   20.3418   -4.5498    0.0000 O   0  0  0  0  0  0  0  0  0  0  0  0
    4.7926    4.5498    0.0000 O   0  0  0  0  0  0  0  0  0  0  0  0
    4.7926    8.6190    0.0000 O   0  0  0  0  0  0  0  0  0  0  0  0
   20.3418   -8.6190    0.0000 O   0  0  0  0  0  0  0  0  0  0  0  0
   22.1790   -4.5067    0.0000 O   0  0  0  0  0  0  0  0  0  0  0  0
    2.9554    4.5067    0.0000 O   0  0  0  0  0  0  0  0  0  0  0  0
   13.4042   -2.5098    0.0000 N   0  3  0  0  0  0  0  0  0  0  0  0
   11.7301    2.5098    0.0000 N   0  3  0  0  0  0  0  0  0  0  0  0
   10.8699    3.0198    0.0000 C   0  0  3  0  0  0  0  0  0  0  0  0
   14.2644   -3.0198    0.0000 C   0  0  3  0  0  0  0  0  0  0  0  0
   14.2529   -4.0198    0.0000 C   0  0  3  0  0  0  0  0  0  0  0  0
   10.8815    4.0198    0.0000 C   0  0  3  0  0  0  0  0  0  0  0  0
   15.1362   -2.5299    0.0000 C   0  0  3  0  0  0  0  0  0  0  0  0
    9.9982    2.5299    0.0000 C   0  0  3  0  0  0  0  0  0  0  0  0
   15.1131   -4.5297    0.0000 C   0  0  0  0  0  0  0  0  0  0  0  0
   10.0213    4.5297    0.0000 C   0  0  0  0  0  0  0  0  0  0  0  0
   15.9848   -4.0398    0.0000 C   0  0  3  0  0  0  0  0  0  0  0  0
    9.1496    4.0398    0.0000 C   0  0  3  0  0  0  0  0  0  0  0  0
   16.8334   -5.5497    0.0000 C   0  0  3  0  0  0  0  0  0  0  0  0
    8.3010    5.5497    0.0000 C   0  0  3  0  0  0  0  0  0  0  0  0
   15.9274   -7.1052    0.0000 C   0  0  3  0  0  0  0  0  0  0  0  0
    9.2070    7.1052    0.0000 C   0  0  3  0  0  0  0  0  0  0  0  0
   15.9274   -6.0636    0.0000 C   0  0  0  0  0  0  0  0  0  0  0  0
    9.2070    6.0636    0.0000 C   0  0  0  0  0  0  0  0  0  0  0  0
   17.7274   -6.0844    0.0000 C   0  0  0  0  0  0  0  0  0  0  0  0
    7.4070    6.0844    0.0000 C   0  0  0  0  0  0  0  0  0  0  0  0
   16.8334   -7.6190    0.0000 C   0  0  0  0  0  0  0  0  0  0  0  0
    8.3010    7.6190    0.0000 C   0  0  0  0  0  0  0  0  0  0  0  0
   17.7274   -7.0844    0.0000 C   0  0  0  0  0  0  0  0  0  0  0  0
    7.4070    7.0844    0.0000 C   0  0  0  0  0  0  0  0  0  0  0  0
   12.5903    1.9999    0.0000 C   0  0  0  0  0  0  0  0  0  0  0  0
   12.5441   -1.9999    0.0000 C   0  0  0  0  0  0  0  0  0  0  0  0
    9.9866    1.5299    0.0000 C   0  0  0  0  0  0  0  0  0  0  0  0
   15.1477   -1.5299    0.0000 C   0  0  0  0  0  0  0  0  0  0  0  0
   18.5934   -5.5844    0.0000 C   0  0  0  0  0  0  0  0  0  0  0  0
    6.5410    5.5844    0.0000 C   0  0  0  0  0  0  0  0  0  0  0  0
    9.7037    7.9731    0.0000 C   0  0  0  0  0  0  0  0  0  0  0  0
   14.9274   -7.1090    0.0000 C   0  0  0  0  0  0  0  0  0  0  0  0
   18.5934   -7.5844    0.0000 C   0  0  0  0  0  0  0  0  0  0  0  0
    6.5410    7.5844    0.0000 C   0  0  0  0  0  0  0  0  0  0  0  0
   12.5556   -0.9999    0.0000 C   0  0  0  0  0  0  0  0  0  0  0  0
   12.5787    0.9999    0.0000 C   0  0  0  0  0  0  0  0  0  0  0  0
   19.4594   -6.0844    0.0000 C   0  0  0  0  0  0  0  0  0  0  0  0
    5.6750    6.0844    0.0000 C   0  0  0  0  0  0  0  0  0  0  0  0
   19.4594   -7.0844    0.0000 C   0  0  0  0  0  0  0  0  0  0  0  0
    5.6750    7.0844    0.0000 C   0  0  0  0  0  0  0  0  0  0  0  0
   13.4389    0.4900    0.0000 C   0  0  0  0  0  0  0  0  0  0  0  0
   13.4274   -0.5100    0.0000 C   0  0  0  0  0  0  0  0  0  0  0  0
   11.7070    0.5100    0.0000 C   0  0  0  0  0  0  0  0  0  0  0  0
   11.6954   -0.4900    0.0000 C   0  0  0  0  0  0  0  0  0  0  0  0
   14.4307   -7.9770    0.0000 C   0  0  0  0  0  0  0  0  0  0  0  0
    9.2003    8.8372    0.0000 C   0  0  0  0  0  0  0  0  0  0  0  0
    4.7810    5.5497    0.0000 C   0  0  0  0  0  0  0  0  0  0  0  0
   20.3534   -5.5497    0.0000 C   0  0  0  0  0  0  0  0  0  0  0  0
    4.7810    7.6190    0.0000 C   0  0  0  0  0  0  0  0  0  0  0  0
   20.3534   -7.6190    0.0000 C   0  0  0  0  0  0  0  0  0  0  0  0
   21.2594   -6.0636    0.0000 C   0  0  0  0  0  0  0  0  0  0  0  0
    3.8749    6.0636    0.0000 C   0  0  0  0  0  0  0  0  0  0  0  0
   21.2594   -7.1052    0.0000 C   0  0  0  0  0  0  0  0  0  0  0  0
    3.8749    7.1052    0.0000 C   0  0  0  0  0  0  0  0  0  0  0  0
   22.1906   -5.5066    0.0000 C   0  0  0  0  0  0  0  0  0  0  0  0
    2.9438    5.5066    0.0000 C   0  0  0  0  0  0  0  0  0  0  0  0
   22.1906   -7.6621    0.0000 C   0  0  0  0  0  0  0  0  0  0  0  0
    2.9438    7.6621    0.0000 C   0  0  0  0  0  0  0  0  0  0  0  0
   23.1344   -6.0419    0.0000 C   0  0  0  0  0  0  0  0  0  0  0  0
    2.0000    6.0419    0.0000 C   0  0  0  0  0  0  0  0  0  0  0  0
   23.1344   -7.1269    0.0000 C   0  0  0  0  0  0  0  0  0  0  0  0
    2.0000    7.1269    0.0000 C   0  0  0  0  0  0  0  0  0  0  0  0
   23.0392   -3.9967    0.0000 C   0  0  0  0  0  0  0  0  0  0  0  0
    2.0952    3.9967    0.0000 C   0  0  0  0  0  0  0  0  0  0  0  0
   13.7239   -3.3236    0.0000 H   0  0  0  0  0  0  0  0  0  0  0  0
   10.8628    2.3999    0.0000 H   0  0  0  0  0  0  0  0  0  0  0  0
   11.4148    3.7036    0.0000 H   0  0  0  0  0  0  0  0  0  0  0  0
   13.7196   -3.7036    0.0000 H   0  0  0  0  0  0  0  0  0  0  0  0
   15.6767   -2.2261    0.0000 H   0  0  0  0  0  0  0  0  0  0  0  0
    9.4577    2.2261    0.0000 H   0  0  0  0  0  0  0  0  0  0  0  0
   10.4253    5.0000    0.0000 H   0  0  0  0  0  0  0  0  0  0  0  0
    9.6283    5.0093    0.0000 H   0  0  0  0  0  0  0  0  0  0  0  0
   14.7091   -5.0000    0.0000 H   0  0  0  0  0  0  0  0  0  0  0  0
   15.5061   -5.0093    0.0000 H   0  0  0  0  0  0  0  0  0  0  0  0
   15.9776   -4.6598    0.0000 H   0  0  0  0  0  0  0  0  0  0  0  0
    8.6091    3.7360    0.0000 H   0  0  0  0  0  0  0  0  0  0  0  0
   17.3745   -5.2470    0.0000 H   0  0  0  0  0  0  0  0  0  0  0  0
    8.8349    5.2345    0.0000 H   0  0  0  0  0  0  0  0  0  0  0  0
   13.7204   -1.9765    0.0000 H   0  0  0  0  0  0  0  0  0  0  0  0
   13.0881   -3.0432    0.0000 H   0  0  0  0  0  0  0  0  0  0  0  0
   12.0463    3.0432    0.0000 H   0  0  0  0  0  0  0  0  0  0  0  0
   11.4139    1.9765    0.0000 H   0  0  0  0  0  0  0  0  0  0  0  0
   15.7183   -5.4799    0.0000 H   0  0  0  0  0  0  0  0  0  0  0  0
   15.3165   -6.1696    0.0000 H   0  0  0  0  0  0  0  0  0  0  0  0
    9.4161    5.4799    0.0000 H   0  0  0  0  0  0  0  0  0  0  0  0
    9.8179    6.1696    0.0000 H   0  0  0  0  0  0  0  0  0  0  0  0
   16.4398   -8.0980    0.0000 H   0  0  0  0  0  0  0  0  0  0  0  0
   17.2380   -8.0888    0.0000 H   0  0  0  0  0  0  0  0  0  0  0  0
    8.6946    8.0980    0.0000 H   0  0  0  0  0  0  0  0  0  0  0  0
    7.8964    8.0888    0.0000 H   0  0  0  0  0  0  0  0  0  0  0  0
   13.1996    1.8852    0.0000 H   0  0  0  0  0  0  0  0  0  0  0  0
   12.8091    2.5800    0.0000 H   0  0  0  0  0  0  0  0  0  0  0  0
   11.9348   -1.8852    0.0000 H   0  0  0  0  0  0  0  0  0  0  0  0
   12.3253   -2.5800    0.0000 H   0  0  0  0  0  0  0  0  0  0  0  0
    9.3667    1.5371    0.0000 H   0  0  0  0  0  0  0  0  0  0  0  0
    9.9795    0.9100    0.0000 H   0  0  0  0  0  0  0  0  0  0  0  0
   10.6066    1.5228    0.0000 H   0  0  0  0  0  0  0  0  0  0  0  0
   15.7677   -1.5371    0.0000 H   0  0  0  0  0  0  0  0  0  0  0  0
   15.1549   -0.9100    0.0000 H   0  0  0  0  0  0  0  0  0  0  0  0
   14.5278   -1.5228    0.0000 H   0  0  0  0  0  0  0  0  0  0  0  0
   12.8478   -4.1935    0.0000 H   0  0  0  0  0  0  0  0  0  0  0  0
   11.7604    5.1297    0.0000 H   0  0  0  0  0  0  0  0  0  0  0  0
   15.7428   -8.5089    0.0000 H   0  0  0  0  0  0  0  0  0  0  0  0
   10.5191    6.5733    0.0000 H   0  0  0  0  0  0  0  0  0  0  0  0
   13.9607   -0.8262    0.0000 H   0  0  0  0  0  0  0  0  0  0  0  0
   13.9794    0.7937    0.0000 H   0  0  0  0  0  0  0  0  0  0  0  0
   11.1550   -0.7937    0.0000 H   0  0  0  0  0  0  0  0  0  0  0  0
   11.1737    0.8262    0.0000 H   0  0  0  0  0  0  0  0  0  0  0  0
    9.7361    9.1493    0.0000 H   0  0  0  0  0  0  0  0  0  0  0  0
    8.8883    9.3730    0.0000 H   0  0  0  0  0  0  0  0  0  0  0  0
    8.6646    8.5252    0.0000 H   0  0  0  0  0  0  0  0  0  0  0  0
   13.8926   -7.6690    0.0000 H   0  0  0  0  0  0  0  0  0  0  0  0
   14.1228   -8.5151    0.0000 H   0  0  0  0  0  0  0  0  0  0  0  0
   14.9688   -8.2849    0.0000 H   0  0  0  0  0  0  0  0  0  0  0  0
   19.1303   -4.2744    0.0000 H   0  0  0  0  0  0  0  0  0  0  0  0
    6.0040    4.2744    0.0000 H   0  0  0  0  0  0  0  0  0  0  0  0
   18.0565   -8.8944    0.0000 H   0  0  0  0  0  0  0  0  0  0  0  0
    7.0779    8.8944    0.0000 H   0  0  0  0  0  0  0  0  0  0  0  0
    2.9510    8.2821    0.0000 H   0  0  0  0  0  0  0  0  0  0  0  0
   22.1834   -8.2821    0.0000 H   0  0  0  0  0  0  0  0  0  0  0  0
    1.4643    5.7298    0.0000 H   0  0  0  0  0  0  0  0  0  0  0  0
   23.6701   -5.7298    0.0000 H   0  0  0  0  0  0  0  0  0  0  0  0
   23.6701   -7.4389    0.0000 H   0  0  0  0  0  0  0  0  0  0  0  0
    1.4643    7.4389    0.0000 H   0  0  0  0  0  0  0  0  0  0  0  0
   23.3554   -4.5300    0.0000 H   0  0  0  0  0  0  0  0  0  0  0  0
   23.5725   -3.6805    0.0000 H   0  0  0  0  0  0  0  0  0  0  0  0
   22.7230   -3.4634    0.0000 H   0  0  0  0  0  0  0  0  0  0  0  0
    1.7790    4.5300    0.0000 H   0  0  0  0  0  0  0  0  0  0  0  0
    1.5618    3.6805    0.0000 H   0  0  0  0  0  0  0  0  0  0  0  0
    2.4114    3.4634    0.0000 H   0  0  0  0  0  0  0  0  0  0  0  0
  1 28  1  0  0  0  0
  1 32  1  0  0  0  0
  2 27  1  0  0  0  0
  2 31  1  0  0  0  0
  3 31  1  0  0  0  0
  3 33  1  0  0  0  0
  4 32  1  0  0  0  0
  4 34  1  0  0  0  0
  5 26  1  0  0  0  0
  5122  1  0  0  0  0
  6 25  1  0  0  0  0
  6121  1  0  0  0  0
  7 36  1  0  0  0  0
  7124  1  0  0  0  0
  8 35  1  0  0  0  0
  8123  1  0  0  0  0
  9 50  1  0  0  0  0
  9136  1  0  0  0  0
 10 49  1  0  0  0  0
 10135  1  0  0  0  0
 11 53  1  0  0  0  0
 11137  1  0  0  0  0
 12 54  1  0  0  0  0
 12138  1  0  0  0  0
 13 52  2  0  0  0  0
 14 51  2  0  0  0  0
 15 68  2  0  0  0  0
 16 67  2  0  0  0  0
 17 69  2  0  0  0  0
 18 70  2  0  0  0  0
 19 75  1  0  0  0  0
 19 83  1  0  0  0  0
 20 76  1  0  0  0  0
 20 84  1  0  0  0  0
 21 24  1  0  0  0  0
 21 46  1  0  0  0  0
 21 99  1  0  0  0  0
 21100  1  0  0  0  0
 22 23  1  0  0  0  0
 22 45  1  0  0  0  0
 22101  1  0  0  0  0
 22102  1  0  0  0  0
 23 26  1  0  0  0  0
 23 28  1  0  0  0  0
 23 86  1  0  0  0  0
 24 25  1  0  0  0  0
 24 27  1  0  0  0  0
 24 85  1  0  0  0  0
 25 29  1  0  0  0  0
 25 88  1  0  0  0  0
 26 30  1  0  0  0  0
 26 87  1  0  0  0  0
 27 48  1  0  0  0  0
 27 89  1  0  0  0  0
 28 47  1  0  0  0  0
 28 90  1  0  0  0  0
 29 31  1  0  0  0  0
 29 93  1  0  0  0  0
 29 94  1  0  0  0  0
 30 32  1  0  0  0  0
 30 91  1  0  0  0  0
 30 92  1  0  0  0  0
 31 95  1  0  0  0  0
 32 96  1  0  0  0  0
 33 37  1  0  0  0  0
 33 39  1  0  0  0  0
 33 97  1  0  0  0  0
 34 38  1  0  0  0  0
 34 40  1  0  0  0  0
 34 98  1  0  0  0  0
 35 37  1  0  0  0  0
 35 41  1  0  0  0  0
 35 52  1  0  0  0  0
 36 38  1  0  0  0  0
 36 42  1  0  0  0  0
 36 51  1  0  0  0  0
 37103  1  0  0  0  0
 37104  1  0  0  0  0
 38105  1  0  0  0  0
 38106  1  0  0  0  0
 39 43  2  0  0  0  0
 39 49  1  0  0  0  0
 40 44  2  0  0  0  0
 40 50  1  0  0  0  0
 41 43  1  0  0  0  0
 41107  1  0  0  0  0
 41108  1  0  0  0  0
 42 44  1  0  0  0  0
 42109  1  0  0  0  0
 42110  1  0  0  0  0
 43 53  1  0  0  0  0
 44 54  1  0  0  0  0
 45 56  1  0  0  0  0
 45111  1  0  0  0  0
 45112  1  0  0  0  0
 46 55  1  0  0  0  0
 46113  1  0  0  0  0
 46114  1  0  0  0  0
 47115  1  0  0  0  0
 47116  1  0  0  0  0
 47117  1  0  0  0  0
 48118  1  0  0  0  0
 48119  1  0  0  0  0
 48120  1  0  0  0  0
 49 57  2  0  0  0  0
 50 58  2  0  0  0  0
 51 66  1  0  0  0  0
 52 65  1  0  0  0  0
 53 59  2  0  0  0  0
 54 60  2  0  0  0  0
 55 62  2  0  0  0  0
 55 64  1  0  0  0  0
 56 61  2  0  0  0  0
 56 63  1  0  0  0  0
 57 59  1  0  0  0  0
 57 68  1  0  0  0  0
 58 60  1  0  0  0  0
 58 67  1  0  0  0  0
 59 70  1  0  0  0  0
 60 69  1  0  0  0  0
 61 62  1  0  0  0  0
 61126  1  0  0  0  0
 62125  1  0  0  0  0
 63 64  2  0  0  0  0
 63128  1  0  0  0  0
 64127  1  0  0  0  0
 65132  1  0  0  0  0
 65133  1  0  0  0  0
 65134  1  0  0  0  0
 66129  1  0  0  0  0
 66130  1  0  0  0  0
 66131  1  0  0  0  0
 67 72  1  0  0  0  0
 68 71  1  0  0  0  0
 69 74  1  0  0  0  0
 70 73  1  0  0  0  0
 71 73  2  0  0  0  0
 71 75  1  0  0  0  0
 72 74  2  0  0  0  0
 72 76  1  0  0  0  0
 73 77  1  0  0  0  0
 74 78  1  0  0  0  0
 75 79  2  0  0  0  0
 76 80  2  0  0  0  0
 77 81  2  0  0  0  0
 77140  1  0  0  0  0
 78 82  2  0  0  0  0
 78139  1  0  0  0  0
 79 81  1  0  0  0  0
 79142  1  0  0  0  0
 80 82  1  0  0  0  0
 80141  1  0  0  0  0
 81143  1  0  0  0  0
 82144  1  0  0  0  0
 83145  1  0  0  0  0
 83146  1  0  0  0  0
 83147  1  0  0  0  0
 84148  1  0  0  0  0
 84149  1  0  0  0  0
 84150  1  0  0  0  0
M  CHG  2  21   1  22   1
M  END
> <PUBCHEM_COMPOUND_CID>
5692

> <PUBCHEM_COMPOUND_CANONICALIZED>
1

> <PUBCHEM_CACTVS_COMPLEXITY>
2300

> <PUBCHEM_CACTVS_HBOND_ACCEPTOR>
20

> <PUBCHEM_CACTVS_HBOND_DONOR>
10

> <PUBCHEM_CACTVS_ROTATABLE_BOND>
14

> <PUBCHEM_CACTVS_SUBSKEYS>
AAADcfB/PgAAAAAAAAAAAAAAAAAAAAAAAAA0aMGDAAAAAADBVAAAHgAQCAAADHzxmAcyDoLABgCIAqBSAAKCCAAkIAAIiIFODMgeNzaGtRuncWhl8BGcuYf77PzOwQADAAAYAADCAAYQADAAAAAAAAAAAA==

> <PUBCHEM_IUPAC_OPENEYE_NAME>
[6-[(3-acetyl-3,5,12-trihydroxy-10-methoxy-6,11-dioxo-2,4-dihydro-1H-tetracen-1-yl)oxy]-4-hydroxy-2-methyl-tetrahydropyran-3-yl]-[[4-[[[6-[(3-acetyl-3,5,12-trihydroxy-10-methoxy-6,11-dioxo-2,4-dihydro-1H-tetracen-1-yl)oxy]-4-hydroxy-2-methyl-tetrahydropyran-3-yl]ammonio]methyl]phenyl]methyl]ammonium

> <PUBCHEM_IUPAC_CAS_NAME>
[6-[(3-acetyl-3,5,12-trihydroxy-10-methoxy-6,11-dioxo-2,4-dihydro-1H-tetracen-1-yl)oxy]-4-hydroxy-2-methyl-3-oxanyl]-[[4-[[[6-[(3-acetyl-3,5,12-trihydroxy-10-methoxy-6,11-dioxo-2,4-dihydro-1H-tetracen-1-yl)oxy]-4-hydroxy-2-methyl-3-oxanyl]ammonio]methyl]phenyl]methyl]ammonium

> <PUBCHEM_IUPAC_NAME>
[6-[(3-acetyl-3,5,12-trihydroxy-10-methoxy-6,11-dioxo-2,4-dihydro-1H-tetracen-1-yl)oxy]-4-hydroxy-2-methyloxan-3-yl]-[[4-[[[6-[(3-acetyl-3,5,12-trihydroxy-10-methoxy-6,11-dioxo-2,4-dihydro-1H-tetracen-1-yl)oxy]-4-hydroxy-2-methyloxan-3-yl]azaniumyl]methyl]phenyl]methyl]azanium

> <PUBCHEM_IUPAC_SYSTEMATIC_NAME>
[6-[[3-ethanoyl-10-methoxy-3,5,12-tris(oxidanyl)-6,11-bis(oxidanylidene)-2,4-dihydro-1H-tetracen-1-yl]oxy]-2-methyl-4-oxidanyl-oxan-3-yl]-[[4-[[[6-[[3-ethanoyl-10-methoxy-3,5,12-tris(oxidanyl)-6,11-bis(oxidanylidene)-2,4-dihydro-1H-tetracen-1-yl]oxy]-2-methyl-4-oxidanyl-oxan-3-yl]azaniumyl]methyl]phenyl]methyl]azanium

> <PUBCHEM_IUPAC_TRADITIONAL_NAME>
[6-[(3-acetyl-3,5,12-trihydroxy-6,11-diketo-10-methoxy-2,4-dihydro-1H-tetracen-1-yl)oxy]-4-hydroxy-2-methyl-tetrahydropyran-3-yl]-[4-[[[6-[(3-acetyl-3,5,12-trihydroxy-6,11-diketo-10-methoxy-2,4-dihydro-1H-tetracen-1-yl)oxy]-4-hydroxy-2-methyl-tetrahydropyran-3-yl]ammonio]methyl]benzyl]ammonium

> <PUBCHEM_IUPAC_INCHI>
InChI=1S/C62H64N2O20/c1-25-51(35(67)17-41(81-25)83-39-21-61(77,27(3)65)19-33-45(39)59(75)49-47(55(33)71)53(69)31-9-7-11-37(79-5)43(31)57(49)73)63-23-29-13-15-30(16-14-29)24-64-52-26(2)82-42(18-36(52)68)84-40-22-62(78,28(4)66)20-34-46(40)60(76)50-48(56(34)72)54(70)32-10-8-12-38(80-6)44(32)58(50)74/h7-16,25-26,35-36,39-42,51-52,63-64,67-68,71-72,75-78H,17-24H2,1-6H3/p+2

> <PUBCHEM_IUPAC_INCHIKEY>
CRXRBKHVHUKITD-UHFFFAOYSA-P

> <PUBCHEM_XLOGP3_AA>
4.7

> <PUBCHEM_EXACT_MASS>
1158.420893

> <PUBCHEM_MOLECULAR_FORMULA>
C62H66N2O20+2

> <PUBCHEM_MOLECULAR_WEIGHT>
1159.18884

> <PUBCHEM_OPENEYE_CAN_SMILES>
CC1C(C(CC(O1)OC2CC(CC3=C(C4=C(C(=C23)O)C(=O)C5=C(C4=O)C=CC=C5OC)O)(C(=O)C)O)O)[NH2+]CC6=CC=C(C=C6)C[NH2+]C7C(OC(CC7O)OC8CC(CC9=C(C1=C(C(=C89)O)C(=O)C2=C(C1=O)C=CC=C2OC)O)(C(=O)C)O)C

> <PUBCHEM_OPENEYE_ISO_SMILES>
CC1C(C(CC(O1)OC2CC(CC3=C(C4=C(C(=C23)O)C(=O)C5=C(C4=O)C=CC=C5OC)O)(C(=O)C)O)O)[NH2+]CC6=CC=C(C=C6)C[NH2+]C7C(OC(CC7O)OC8CC(CC9=C(C1=C(C(=C89)O)C(=O)C2=C(C1=O)C=CC=C2OC)O)(C(=O)C)O)C

> <PUBCHEM_CACTVS_TPSA>
353

> <PUBCHEM_MONOISOTOPIC_WEIGHT>
1158.420893

> <PUBCHEM_TOTAL_CHARGE>
2

> <PUBCHEM_HEAVY_ATOM_COUNT>
84

> <PUBCHEM_ATOM_DEF_STEREO_COUNT>
0

> <PUBCHEM_ATOM_UDEF_STEREO_COUNT>
12

> <PUBCHEM_BOND_DEF_STEREO_COUNT>
0

> <PUBCHEM_BOND_UDEF_STEREO_COUNT>
0

> <PUBCHEM_ISOTOPIC_ATOM_COUNT>
0

> <PUBCHEM_COMPONENT_COUNT>
1

> <PUBCHEM_CACTVS_TAUTO_COUNT>
992

> <PUBCHEM_COORDINATE_TYPE>
1
5
255

> <PUBCHEM_BONDANNOTATIONS>
24  21  3
23  22  3
27  48  3
28  47  3
31  3  3
33  3  3
39  43  8
39  49  8
32  4  3
34  4  3
40  44  8
40  50  8
43  53  8
44  54  8
49  57  8
26  5  3
50  58  8
53  59  8
54  60  8
55  62  8
55  64  8
56  61  8
56  63  8
57  59  8
58  60  8
25  6  3
61  62  8
63  64  8
36  7  3
71  73  8
71  75  8
72  74  8
72  76  8
73  77  8
74  78  8
75  79  8
76  80  8
77  81  8
78  82  8
79  81  8
35  8  3
80  82  8

$$$$

