9246
  -OEChem-06261203323D

 17 18  0     1  0  0  0  0  0999 V2000
    1.4841    0.0260   -0.7201 O   0  0  0  0  0  0  0  0  0  0  0  0
    0.9331    0.8319    0.3404 C   0  0  2  0  0  0  0  0  0  0  0  0
    1.0242   -0.6681    0.4410 C   0  0  1  0  0  0  0  0  0  0  0  0
   -0.3502    1.5063   -0.0295 C   0  0  0  0  0  0  0  0  0  0  0  0
   -0.1920   -1.5148    0.2490 C   0  0  0  0  0  0  0  0  0  0  0  0
   -1.5634    0.5983    0.1690 C   0  0  0  0  0  0  0  0  0  0  0  0
   -1.3359   -0.7796   -0.4499 C   0  0  0  0  0  0  0  0  0  0  0  0
    1.6191    1.4543    0.8964 H   0  0  0  0  0  0  0  0  0  0  0  0
    1.7656   -1.1127    1.0897 H   0  0  0  0  0  0  0  0  0  0  0  0
   -0.3006    1.8364   -1.0743 H   0  0  0  0  0  0  0  0  0  0  0  0
   -0.4775    2.4094    0.5784 H   0  0  0  0  0  0  0  0  0  0  0  0
   -0.5350   -1.8495    1.2355 H   0  0  0  0  0  0  0  0  0  0  0  0
    0.0696   -2.4152   -0.3179 H   0  0  0  0  0  0  0  0  0  0  0  0
   -2.4463    1.0680   -0.2790 H   0  0  0  0  0  0  0  0  0  0  0  0
   -1.7684    0.4856    1.2410 H   0  0  0  0  0  0  0  0  0  0  0  0
   -2.2509   -1.3780   -0.3762 H   0  0  0  0  0  0  0  0  0  0  0  0
   -1.1114   -0.6685   -1.5180 H   0  0  0  0  0  0  0  0  0  0  0  0
  1  2  1  0  0  0  0
  1  3  1  0  0  0  0
  2  3  1  0  0  0  0
  2  4  1  0  0  0  0
  2  8  1  0  0  0  0
  3  5  1  0  0  0  0
  3  9  1  0  0  0  0
  4  6  1  0  0  0  0
  4 10  1  0  0  0  0
  4 11  1  0  0  0  0
  5  7  1  0  0  0  0
  5 12  1  0  0  0  0
  5 13  1  0  0  0  0
  6  7  1  0  0  0  0
  6 14  1  0  0  0  0
  6 15  1  0  0  0  0
  7 16  1  0  0  0  0
  7 17  1  0  0  0  0
M  END
> <PUBCHEM_COMPOUND_CID>
9246

> <PUBCHEM_CONFORMER_RMSD>
0.4

> <PUBCHEM_CONFORMER_DIVERSEORDER>
1
2
3

> <PUBCHEM_MMFF94_PARTIAL_CHARGES>
7
1 -0.3
2 -0.05
3 -0.05
4 0.09
5 0.09
8 0.1
9 0.1

> <PUBCHEM_EFFECTIVE_ROTOR_COUNT>
1

> <PUBCHEM_PHARMACOPHORE_FEATURES>
2
1 1 acceptor
7 1 2 3 4 5 6 7 rings

> <PUBCHEM_HEAVY_ATOM_COUNT>
7

> <PUBCHEM_ATOM_DEF_STEREO_COUNT>
0

> <PUBCHEM_ATOM_UDEF_STEREO_COUNT>
2

> <PUBCHEM_BOND_DEF_STEREO_COUNT>
0

> <PUBCHEM_BOND_UDEF_STEREO_COUNT>
0

> <PUBCHEM_ISOTOPIC_ATOM_COUNT>
0

> <PUBCHEM_COMPONENT_COUNT>
1

> <PUBCHEM_CACTVS_TAUTO_COUNT>
1

> <PUBCHEM_CONFORMER_ID>
0000241E00000001

> <PUBCHEM_MMFF94_ENERGY>
7.0015

> <PUBCHEM_FEATURE_SELFOVERLAP>
10.148

> <PUBCHEM_SHAPE_FINGERPRINT>
16714656 1 18337657715597993276
18185500 45 18339091500298818019
20096714 4 18410574015353398299
21040471 1 18265617778181298529
29004967 10 17829039914404247107

> <PUBCHEM_SHAPE_MULTIPOLES>
138.19
1.78
1.6
0.75
0.16
0.01
-0.02
-0.03
-0.12
0.18
0.09
-0.08
0.03
-0.09

> <PUBCHEM_SHAPE_SELFOVERLAP>
276.705

> <PUBCHEM_SHAPE_VOLUME>
81.7

> <PUBCHEM_COORDINATE_TYPE>
2
5
10

$$$$

