10493
  -OEChem-06261204363D

 83 88  0     1  0  0  0  0  0999 V2000
   -3.6223   -1.5295   -0.3698 O   0  0  0  0  0  0  0  0  0  0  0  0
   -0.8564    3.3116    0.2145 O   0  0  0  0  0  0  0  0  0  0  0  0
    4.1036    0.6961    0.7969 O   0  0  0  0  0  0  0  0  0  0  0  0
    0.9320   -0.0087   -2.9432 O   0  0  0  0  0  0  0  0  0  0  0  0
   -8.1717   -0.3108   -0.6582 O   0  0  0  0  0  0  0  0  0  0  0  0
    5.0234   -1.4147    1.3679 O   0  0  0  0  0  0  0  0  0  0  0  0
   -8.2042   -2.5917   -0.3550 O   0  0  0  0  0  0  0  0  0  0  0  0
    6.3453    0.7501   -1.1019 O   0  0  0  0  0  0  0  0  0  0  0  0
    7.3030   -1.8330   -1.4939 O   0  0  0  0  0  0  0  0  0  0  0  0
   -2.9270   -0.4154    0.2118 C   0  0  1  0  0  0  0  0  0  0  0  0
   -1.4804   -0.4039   -0.3517 C   0  0  1  0  0  0  0  0  0  0  0  0
   -3.7263    0.8754   -0.0966 C   0  0  2  0  0  0  0  0  0  0  0  0
   -0.6661    0.8850   -0.0100 C   0  0  1  0  0  0  0  0  0  0  0  0
    0.7646    0.8396   -0.6828 C   0  0  2  0  0  0  0  0  0  0  0  0
   -1.4948    2.1566   -0.3287 C   0  0  1  0  0  0  0  0  0  0  0  0
   -2.8935    2.1184    0.2899 C   0  0  0  0  0  0  0  0  0  0  0  0
   -4.9471    0.7723    0.8740 C   0  0  2  0  0  0  0  0  0  0  0  0
    1.5176   -0.4740   -0.3014 C   0  0  2  0  0  0  0  0  0  0  0  0
   -3.0308   -0.5380    1.7424 C   0  0  0  0  0  0  0  0  0  0  0  0
   -0.7068   -1.6694    0.0691 C   0  0  0  0  0  0  0  0  0  0  0  0
   -4.3888    0.0660    2.1262 C   0  0  0  0  0  0  0  0  0  0  0  0
    0.6799   -1.7352   -0.5543 C   0  0  0  0  0  0  0  0  0  0  0  0
    1.7004    2.0300   -0.3439 C   0  0  0  0  0  0  0  0  0  0  0  0
   -4.1478    0.9968   -1.5747 C   0  0  0  0  0  0  0  0  0  0  0  0
    2.0138   -0.4590    1.1655 C   0  0  0  0  0  0  0  0  0  0  0  0
    2.1523    2.0583    1.1140 C   0  0  0  0  0  0  0  0  0  0  0  0
    2.8632    0.7655    1.4975 C   0  0  2  0  0  0  0  0  0  0  0  0
   -6.1460    0.0346    0.3509 C   0  0  0  0  0  0  0  0  0  0  0  0
    0.6029    0.9016   -2.1898 C   0  0  0  0  0  0  0  0  0  0  0  0
   -7.2549    0.7372   -0.3261 C   0  0  0  0  0  0  0  0  0  0  0  0
   -6.3740   -1.2744    0.4155 C   0  0  0  0  0  0  0  0  0  0  0  0
   -7.6686   -1.5043   -0.2277 C   0  0  0  0  0  0  0  0  0  0  0  0
    5.0894    0.0009    1.5550 C   0  0  1  0  0  0  0  0  0  0  0  0
    6.5008    0.5449    1.3010 C   0  0  0  0  0  0  0  0  0  0  0  0
    7.0511    0.0904   -0.0513 C   0  0  1  0  0  0  0  0  0  0  0  0
    5.4307   -1.8451    0.0650 C   0  0  1  0  0  0  0  0  0  0  0  0
    6.8814   -1.4228   -0.1989 C   0  0  1  0  0  0  0  0  0  0  0  0
    5.2683   -3.3613    0.0144 C   0  0  0  0  0  0  0  0  0  0  0  0
    6.4838    2.1598   -1.0113 C   0  0  0  0  0  0  0  0  0  0  0  0
   -1.5708   -0.4546   -1.4462 H   0  0  0  0  0  0  0  0  0  0  0  0
   -0.4987    0.8909    1.0747 H   0  0  0  0  0  0  0  0  0  0  0  0
   -1.5829    2.3124   -1.4065 H   0  0  0  0  0  0  0  0  0  0  0  0
   -3.4331    3.0334    0.0075 H   0  0  0  0  0  0  0  0  0  0  0  0
   -2.7930    2.1973    1.3809 H   0  0  0  0  0  0  0  0  0  0  0  0
   -5.2908    1.7735    1.1675 H   0  0  0  0  0  0  0  0  0  0  0  0
    2.4137   -0.5631   -0.9325 H   0  0  0  0  0  0  0  0  0  0  0  0
   -2.2353    0.0102    2.2575 H   0  0  0  0  0  0  0  0  0  0  0  0
   -2.9823   -1.5825    2.0699 H   0  0  0  0  0  0  0  0  0  0  0  0
   -1.2618   -2.5666   -0.2302 H   0  0  0  0  0  0  0  0  0  0  0  0
   -0.6188   -1.7145    1.1603 H   0  0  0  0  0  0  0  0  0  0  0  0
   -4.2241    0.8103    2.9167 H   0  0  0  0  0  0  0  0  0  0  0  0
   -5.0500   -0.6830    2.5739 H   0  0  0  0  0  0  0  0  0  0  0  0
    1.2063   -2.6146   -0.1619 H   0  0  0  0  0  0  0  0  0  0  0  0
    0.5728   -1.9240   -1.6272 H   0  0  0  0  0  0  0  0  0  0  0  0
    2.5980    1.9664   -0.9778 H   0  0  0  0  0  0  0  0  0  0  0  0
    1.2582    2.9913   -0.6199 H   0  0  0  0  0  0  0  0  0  0  0  0
   -4.7683    0.1633   -1.9164 H   0  0  0  0  0  0  0  0  0  0  0  0
   -4.7115    1.9213   -1.7427 H   0  0  0  0  0  0  0  0  0  0  0  0
   -3.2784    1.0245   -2.2393 H   0  0  0  0  0  0  0  0  0  0  0  0
    1.1589   -0.4743    1.8512 H   0  0  0  0  0  0  0  0  0  0  0  0
    2.5714   -1.3804    1.3596 H   0  0  0  0  0  0  0  0  0  0  0  0
    2.8337    2.9067    1.2502 H   0  0  0  0  0  0  0  0  0  0  0  0
    1.2935    2.2227    1.7732 H   0  0  0  0  0  0  0  0  0  0  0  0
    3.0275    0.8090    2.5814 H   0  0  0  0  0  0  0  0  0  0  0  0
   -3.4599   -1.5307   -1.3278 H   0  0  0  0  0  0  0  0  0  0  0  0
    0.1828    1.8335   -2.6034 H   0  0  0  0  0  0  0  0  0  0  0  0
   -0.7771    3.1901    1.1759 H   0  0  0  0  0  0  0  0  0  0  0  0
   -6.9522    1.2418   -1.2461 H   0  0  0  0  0  0  0  0  0  0  0  0
   -7.7574    1.4487    0.3359 H   0  0  0  0  0  0  0  0  0  0  0  0
   -5.7795   -2.0591    0.8493 H   0  0  0  0  0  0  0  0  0  0  0  0
    4.9165    0.1671    2.6253 H   0  0  0  0  0  0  0  0  0  0  0  0
    6.5140    1.6303    1.4299 H   0  0  0  0  0  0  0  0  0  0  0  0
    7.1633    0.1277    2.0716 H   0  0  0  0  0  0  0  0  0  0  0  0
    8.1151    0.3415   -0.1457 H   0  0  0  0  0  0  0  0  0  0  0  0
    4.7579   -1.4157   -0.6874 H   0  0  0  0  0  0  0  0  0  0  0  0
    7.5371   -1.9131    0.5315 H   0  0  0  0  0  0  0  0  0  0  0  0
    5.5237   -3.7626   -0.9706 H   0  0  0  0  0  0  0  0  0  0  0  0
    4.2335   -3.6389    0.2436 H   0  0  0  0  0  0  0  0  0  0  0  0
    5.8976   -3.8482    0.7676 H   0  0  0  0  0  0  0  0  0  0  0  0
    6.7361   -1.3841   -2.1443 H   0  0  0  0  0  0  0  0  0  0  0  0
    6.2588    2.5763   -1.9980 H   0  0  0  0  0  0  0  0  0  0  0  0
    5.7554    2.5858   -0.3163 H   0  0  0  0  0  0  0  0  0  0  0  0
    7.5026    2.4611   -0.7468 H   0  0  0  0  0  0  0  0  0  0  0  0
  1 10  1  0  0  0  0
  1 65  1  0  0  0  0
  2 15  1  0  0  0  0
  2 67  1  0  0  0  0
  3 27  1  0  0  0  0
  3 33  1  0  0  0  0
  4 29  2  0  0  0  0
  5 30  1  0  0  0  0
  5 32  1  0  0  0  0
  6 33  1  0  0  0  0
  6 36  1  0  0  0  0
  7 32  2  0  0  0  0
  8 35  1  0  0  0  0
  8 39  1  0  0  0  0
  9 37  1  0  0  0  0
  9 80  1  0  0  0  0
 10 11  1  0  0  0  0
 10 12  1  0  0  0  0
 10 19  1  0  0  0  0
 11 13  1  0  0  0  0
 11 20  1  0  0  0  0
 11 40  1  0  0  0  0
 12 16  1  0  0  0  0
 12 17  1  0  0  0  0
 12 24  1  0  0  0  0
 13 14  1  0  0  0  0
 13 15  1  0  0  0  0
 13 41  1  0  0  0  0
 14 18  1  0  0  0  0
 14 23  1  0  0  0  0
 14 29  1  0  0  0  0
 15 16  1  0  0  0  0
 15 42  1  0  0  0  0
 16 43  1  0  0  0  0
 16 44  1  0  0  0  0
 17 21  1  0  0  0  0
 17 28  1  0  0  0  0
 17 45  1  0  0  0  0
 18 22  1  0  0  0  0
 18 25  1  0  0  0  0
 18 46  1  0  0  0  0
 19 21  1  0  0  0  0
 19 47  1  0  0  0  0
 19 48  1  0  0  0  0
 20 22  1  0  0  0  0
 20 49  1  0  0  0  0
 20 50  1  0  0  0  0
 21 51  1  0  0  0  0
 21 52  1  0  0  0  0
 22 53  1  0  0  0  0
 22 54  1  0  0  0  0
 23 26  1  0  0  0  0
 23 55  1  0  0  0  0
 23 56  1  0  0  0  0
 24 57  1  0  0  0  0
 24 58  1  0  0  0  0
 24 59  1  0  0  0  0
 25 27  1  0  0  0  0
 25 60  1  0  0  0  0
 25 61  1  0  0  0  0
 26 27  1  0  0  0  0
 26 62  1  0  0  0  0
 26 63  1  0  0  0  0
 27 64  1  0  0  0  0
 28 30  1  0  0  0  0
 28 31  2  0  0  0  0
 29 66  1  0  0  0  0
 30 68  1  0  0  0  0
 30 69  1  0  0  0  0
 31 32  1  0  0  0  0
 31 70  1  0  0  0  0
 33 34  1  0  0  0  0
 33 71  1  0  0  0  0
 34 35  1  0  0  0  0
 34 72  1  0  0  0  0
 34 73  1  0  0  0  0
 35 37  1  0  0  0  0
 35 74  1  0  0  0  0
 36 37  1  0  0  0  0
 36 38  1  0  0  0  0
 36 75  1  0  0  0  0
 37 76  1  0  0  0  0
 38 77  1  0  0  0  0
 38 78  1  0  0  0  0
 38 79  1  0  0  0  0
 39 81  1  0  0  0  0
 39 82  1  0  0  0  0
 39 83  1  0  0  0  0
M  END
> <PUBCHEM_COMPOUND_CID>
10493

> <PUBCHEM_CONFORMER_RMSD>
1

> <PUBCHEM_CONFORMER_DIVERSEORDER>
139
142
130
96
214
243
281
8
173
272
170
71
88
143
60
188
38
268
36
93
120
32
201
239
269
84
107
271
197
73
260
189
98
151
74
34
67
64
299
26
218
58
110
7
44
70
231
171
258
176
61
207
103
232
23
78
35
90
282
270
76
19
153
204
99
83
92
229
144
75
16
244
255
138
66
248
277
133
106
124
155
79
247
250
240
265
275
131
237
167
30
54
100
123
52
235
115
228
37
21
128
42
266
49
236
109
279
290
134
137
301
196
180
304
169
94
251
254
252
39
102
29
241
198
41
278
31
68
287
283
111
303
125
105
50
33
18
89
213
222
177
294
129
145
4
256
223
47
242
149
25
274
194
132
209
233
174
116
300
273
262
147
234
114
205
95
69
224
56
206
280
181
257
175
157
264
122
5
178
154
184
135
259
59
168
284
220
302
165
43
17
97
253
15
1
192
285
246
160
193
119
261
101
292
156
217
166
57
46
289
298
295
14
238
186
190
203
291
127
40
296
182
200
146
288
179
121
10
104
117
211
113
210
87
55
230
191
164
152
293
150
12
108
136
9
202
215
48
267
219
161
112
225
276
208
297
172
3
45
62
187
212
77
227
80
11
226
195
286
249
27
221
216
162
28
185
245
140
22
183
82
159
141
13
126
86
118
263
20
199
51
163
6
81
148
24
91
63
2
72
53
158
65
85

> <PUBCHEM_MMFF94_PARTIAL_CHARGES>
29
1 -0.68
10 0.28
14 0.06
15 0.28
17 0.14
2 -0.68
27 0.28
28 -0.28
29 0.45
3 -0.56
30 0.42
31 -0.14
32 0.71
33 0.56
35 0.28
36 0.28
37 0.28
39 0.28
4 -0.57
5 -0.43
6 -0.56
65 0.4
66 0.06
67 0.4
7 -0.57
70 0.15
8 -0.56
80 0.4
9 -0.68

> <PUBCHEM_EFFECTIVE_ROTOR_COUNT>
8.8

> <PUBCHEM_PHARMACOPHORE_FEATURES>
17
1 1 acceptor
1 1 donor
1 2 acceptor
1 2 donor
1 3 acceptor
1 4 acceptor
1 6 acceptor
1 7 acceptor
1 8 acceptor
1 9 acceptor
1 9 donor
5 10 12 17 19 21 rings
5 5 28 30 31 32 rings
6 10 11 12 13 15 16 rings
6 11 13 14 18 20 22 rings
6 14 18 23 25 26 27 rings
6 6 33 34 35 36 37 rings

> <PUBCHEM_HEAVY_ATOM_COUNT>
39

> <PUBCHEM_ATOM_DEF_STEREO_COUNT>
9

> <PUBCHEM_ATOM_UDEF_STEREO_COUNT>
4

> <PUBCHEM_BOND_DEF_STEREO_COUNT>
0

> <PUBCHEM_BOND_UDEF_STEREO_COUNT>
0

> <PUBCHEM_ISOTOPIC_ATOM_COUNT>
0

> <PUBCHEM_COMPONENT_COUNT>
1

> <PUBCHEM_CACTVS_TAUTO_COUNT>
1

> <PUBCHEM_CONFORMER_ID>
000028FD0000008B

> <PUBCHEM_MMFF94_ENERGY>
136.2205

> <PUBCHEM_FEATURE_SELFOVERLAP>
86.534

> <PUBCHEM_SHAPE_FINGERPRINT>
11007060 377 17132112455416310289
11135609 187 10879996865435800981
117089 54 17462555437054712750
12166972 35 18333453119031070569
12664476 115 18202847665275909756
13617811 41 18273213097643599924
13782708 43 18336546139439179466
13811026 1 18409735087860059905
14068700 675 18202003235281157917
14117953 113 18410016537921645983
1454969 45 18273494572002878394
15183329 4 17167861980823895370
15301273 46 18186523215225845729
15361156 5 14907893848090309203
15439362 3 11526787840144955398
15461852 350 18412261714869477591
15840311 113 17988922237305144516
15849732 13 18343585135713078639
16728433 281 14978580450292886255
1813 80 17203324555139994372
20511986 3 7925623351145059616
20715895 44 9439396948183052232
21130935 74 18260548969495597931
21267235 1 18410856555872499033
21304304 249 18409449168014411975
23522609 53 18118654760764915456
23559900 14 16558464193800853425
23569917 315 18260260820625629735
23569943 247 18049439541618344514
23576562 1 15912755073999230527
3383291 50 18342741797605163835
34797466 226 17988922280360039084
3633792 109 17418096524954022661
4340502 62 14851601068529484861
4760202 170 12247682634933735727
563151 248 16805611347654784879
6081469 158 18410579496169732193
9896288 288 17677888123206176289

> <PUBCHEM_SHAPE_MULTIPOLES>
749.78
22.21
2.64
1.65
5.05
0.24
-0.27
9.67
-0.81
-1.48
-0.27
-0.75
-0.22
0.05

> <PUBCHEM_SHAPE_SELFOVERLAP>
1614.342

> <PUBCHEM_SHAPE_VOLUME>
408.5

> <PUBCHEM_COORDINATE_TYPE>
2
5
10

$$$$

