6451
  -OEChem-06261201202D

 45 48  0     0  0  0  0  0  0999 V2000
    7.8404   -2.1021    0.0000 Br  0  0  0  0  0  0  0  0  0  0  0  0
    5.4044    2.6995    0.0000 Br  0  0  0  0  0  0  0  0  0  0  0  0
    7.4843    1.3437    0.0000 Br  0  0  0  0  0  0  0  0  0  0  0  0
    2.1080    1.6348    0.0000 Br  0  0  0  0  0  0  0  0  0  0  0  0
    4.6783   -2.2971    0.0000 S   0  0  0  0  0  0  0  0  0  0  0  0
    5.2619   -1.4924    0.0000 O   0  0  0  0  0  0  0  0  0  0  0  0
    5.4883   -2.8835    0.0000 O   0  0  0  0  0  0  0  0  0  0  0  0
    4.3709   -3.2487    0.0000 O   0  0  0  0  0  0  0  0  0  0  0  0
    8.6571   -0.2764    0.0000 O   0  0  0  0  0  0  0  0  0  0  0  0
    3.4488    3.1187    0.0000 O   0  0  0  0  0  0  0  0  0  0  0  0
    4.6783   -0.6876    0.0000 C   0  0  0  0  0  0  0  0  0  0  0  0
    3.7320   -0.9924    0.0000 C   0  0  0  0  0  0  0  0  0  0  0  0
    5.6730   -0.5848    0.0000 C   0  0  0  0  0  0  0  0  0  0  0  0
    4.3709    0.2640    0.0000 C   0  0  0  0  0  0  0  0  0  0  0  0
    3.7320   -1.9924    0.0000 C   0  0  0  0  0  0  0  0  0  0  0  0
    6.2594   -1.3949    0.0000 C   0  0  0  0  0  0  0  0  0  0  0  0
    5.0413    1.0059    0.0000 C   0  0  0  0  0  0  0  0  0  0  0  0
    2.8660   -0.4924    0.0000 C   0  0  0  0  0  0  0  0  0  0  0  0
    2.8660   -2.4924    0.0000 C   0  0  0  0  0  0  0  0  0  0  0  0
    6.0813    0.3280    0.0000 C   0  0  0  0  0  0  0  0  0  0  0  0
    3.3931    0.4736    0.0000 C   0  0  0  0  0  0  0  0  0  0  0  0
    2.0000   -0.9924    0.0000 C   0  0  0  0  0  0  0  0  0  0  0  0
    2.0000   -1.9924    0.0000 C   0  0  0  0  0  0  0  0  0  0  0  0
    7.2541   -1.2920    0.0000 C   0  0  0  0  0  0  0  0  0  0  0  0
    4.7339    1.9575    0.0000 C   0  0  0  0  0  0  0  0  0  0  0  0
    5.8510   -2.3077    0.0000 C   0  0  0  0  0  0  0  0  0  0  0  0
    5.9929    1.3133    0.0000 C   0  0  0  0  0  0  0  0  0  0  0  0
    7.0760    0.4308    0.0000 C   0  0  0  0  0  0  0  0  0  0  0  0
    3.0857    1.4252    0.0000 C   0  0  0  0  0  0  0  0  0  0  0  0
    3.7562    2.1671    0.0000 C   0  0  0  0  0  0  0  0  0  0  0  0
    7.6624   -0.3792    0.0000 C   0  0  0  0  0  0  0  0  0  0  0  0
    2.8660    0.1276    0.0000 H   0  0  0  0  0  0  0  0  0  0  0  0
    2.8660   -3.1124    0.0000 H   0  0  0  0  0  0  0  0  0  0  0  0
    2.9775    0.0135    0.0000 H   0  0  0  0  0  0  0  0  0  0  0  0
    5.7177    0.8302    0.0000 H   0  0  0  0  0  0  0  0  0  0  0  0
    1.4631   -0.6824    0.0000 H   0  0  0  0  0  0  0  0  0  0  0  0
    1.4631   -2.3024    0.0000 H   0  0  0  0  0  0  0  0  0  0  0  0
    6.1835    0.7233    0.0000 H   0  0  0  0  0  0  0  0  0  0  0  0
    6.5829    1.5039    0.0000 H   0  0  0  0  0  0  0  0  0  0  0  0
    5.8023    1.9033    0.0000 H   0  0  0  0  0  0  0  0  0  0  0  0
    5.2851   -2.0545    0.0000 H   0  0  0  0  0  0  0  0  0  0  0  0
    5.5979   -2.8737    0.0000 H   0  0  0  0  0  0  0  0  0  0  0  0
    6.4170   -2.5608    0.0000 H   0  0  0  0  0  0  0  0  0  0  0  0
    2.8426    3.2487    0.0000 H   0  0  0  0  0  0  0  0  0  0  0  0
    9.0206   -0.7786    0.0000 H   0  0  0  0  0  0  0  0  0  0  0  0
  1 24  1  0  0  0  0
  2 25  1  0  0  0  0
  3 28  1  0  0  0  0
  4 29  1  0  0  0  0
  5  6  1  0  0  0  0
  5  7  2  0  0  0  0
  5  8  2  0  0  0  0
  5 15  1  0  0  0  0
  6 11  1  0  0  0  0
  9 31  1  0  0  0  0
  9 45  1  0  0  0  0
 10 30  1  0  0  0  0
 10 44  1  0  0  0  0
 11 12  1  0  0  0  0
 11 13  1  0  0  0  0
 11 14  1  0  0  0  0
 12 15  1  0  0  0  0
 12 18  2  0  0  0  0
 13 16  1  0  0  0  0
 13 20  2  0  0  0  0
 14 17  1  0  0  0  0
 14 21  2  0  0  0  0
 15 19  2  0  0  0  0
 16 24  2  0  0  0  0
 16 26  1  0  0  0  0
 17 25  2  0  0  0  0
 17 27  1  0  0  0  0
 18 22  1  0  0  0  0
 18 32  1  0  0  0  0
 19 23  1  0  0  0  0
 19 33  1  0  0  0  0
 20 28  1  0  0  0  0
 20 35  1  0  0  0  0
 21 29  1  0  0  0  0
 21 34  1  0  0  0  0
 22 23  2  0  0  0  0
 22 36  1  0  0  0  0
 23 37  1  0  0  0  0
 24 31  1  0  0  0  0
 25 30  1  0  0  0  0
 26 41  1  0  0  0  0
 26 42  1  0  0  0  0
 26 43  1  0  0  0  0
 27 38  1  0  0  0  0
 27 39  1  0  0  0  0
 27 40  1  0  0  0  0
 28 31  2  0  0  0  0
 29 30  2  0  0  0  0
M  END
> <PUBCHEM_COMPOUND_CID>
6451

> <PUBCHEM_COMPOUND_CANONICALIZED>
1

> <PUBCHEM_CACTVS_COMPLEXITY>
742

> <PUBCHEM_CACTVS_HBOND_ACCEPTOR>
5

> <PUBCHEM_CACTVS_HBOND_DONOR>
2

> <PUBCHEM_CACTVS_ROTATABLE_BOND>
2

> <PUBCHEM_CACTVS_SUBSKEYS>
AAADccB4OABAHAAAAAAAAAAAAAAAASAAAAAwYMAAAAAAAEgBUAAAGgRACAABrESA2AAyB4AAAgKAAiBCAHBCAEAgIAQIiBgECKgIJiKCERKAcAAkwBEImheA4PQOogABEAA0hABEAAIgAGkIAAAAAAAAAA==

> <PUBCHEM_IUPAC_OPENEYE_NAME>
2,6-dibromo-4-[3-(3,5-dibromo-4-hydroxy-2-methyl-phenyl)-1,1-dioxo-2,1$l^{6}-benzoxathiol-3-yl]-3-methyl-phenol

> <PUBCHEM_IUPAC_CAS_NAME>
2,6-dibromo-4-[3-(3,5-dibromo-4-hydroxy-2-methylphenyl)-1,1-dioxo-2,1$l^{6}-benzoxathiol-3-yl]-3-methylphenol

> <PUBCHEM_IUPAC_NAME>
2,6-dibromo-4-[3-(3,5-dibromo-4-hydroxy-2-methylphenyl)-1,1-dioxo-2,1$l^{6}-benzoxathiol-3-yl]-3-methylphenol

> <PUBCHEM_IUPAC_SYSTEMATIC_NAME>
4-[3-[3,5-bis(bromanyl)-2-methyl-4-oxidanyl-phenyl]-1,1-bis(oxidanylidene)-2,1$l^{6}-benzoxathiol-3-yl]-2,6-bis(bromanyl)-3-methyl-phenol

> <PUBCHEM_IUPAC_TRADITIONAL_NAME>
2,6-dibromo-4-[3-(3,5-dibromo-4-hydroxy-2-methyl-phenyl)-1,1-diketo-2,1$l^{6}-benzoxathiol-3-yl]-3-methyl-phenol

> <PUBCHEM_IUPAC_INCHI>
InChI=1S/C21H14Br4O5S/c1-9-12(7-14(22)19(26)17(9)24)21(13-8-15(23)20(27)18(25)10(13)2)11-5-3-4-6-16(11)31(28,29)30-21/h3-8,26-27H,1-2H3

> <PUBCHEM_IUPAC_INCHIKEY>
FRPHFZCDPYBUAU-UHFFFAOYSA-N

> <PUBCHEM_XLOGP3>
6.5

> <PUBCHEM_EXACT_MASS>
697.72545

> <PUBCHEM_MOLECULAR_FORMULA>
C21H14Br4O5S

> <PUBCHEM_MOLECULAR_WEIGHT>
698.01386

> <PUBCHEM_OPENEYE_CAN_SMILES>
CC1=C(C(=C(C=C1C2(C3=CC=CC=C3S(=O)(=O)O2)C4=CC(=C(C(=C4C)Br)O)Br)Br)O)Br

> <PUBCHEM_OPENEYE_ISO_SMILES>
CC1=C(C(=C(C=C1C2(C3=CC=CC=C3S(=O)(=O)O2)C4=CC(=C(C(=C4C)Br)O)Br)Br)O)Br

> <PUBCHEM_CACTVS_TPSA>
92.2

> <PUBCHEM_MONOISOTOPIC_WEIGHT>
693.729543

> <PUBCHEM_TOTAL_CHARGE>
0

> <PUBCHEM_HEAVY_ATOM_COUNT>
31

> <PUBCHEM_ATOM_DEF_STEREO_COUNT>
0

> <PUBCHEM_ATOM_UDEF_STEREO_COUNT>
0

> <PUBCHEM_BOND_DEF_STEREO_COUNT>
0

> <PUBCHEM_BOND_UDEF_STEREO_COUNT>
0

> <PUBCHEM_ISOTOPIC_ATOM_COUNT>
0

> <PUBCHEM_COMPONENT_COUNT>
1

> <PUBCHEM_CACTVS_TAUTO_COUNT>
45

> <PUBCHEM_COORDINATE_TYPE>
1
5
255

> <PUBCHEM_BONDANNOTATIONS>
12  15  8
12  18  8
13  16  8
13  20  8
14  17  8
14  21  8
15  19  8
16  24  8
17  25  8
18  22  8
19  23  8
20  28  8
21  29  8
22  23  8
24  31  8
25  30  8
28  31  8
29  30  8

$$$$

