7847063
  -OEChem-06241222483D

 50 52  0     0  0  0  0  0  0999 V2000
    0.7340   -2.2090   -0.4496 O   0  0  0  0  0  0  0  0  0  0  0  0
   -2.0129   -2.2346   -0.9160 O   0  0  0  0  0  0  0  0  0  0  0  0
    1.3310   -2.1414    1.7725 O   0  0  0  0  0  0  0  0  0  0  0  0
   -5.8368    1.4984    0.4344 O   0  0  0  0  0  0  0  0  0  0  0  0
    3.6071    1.7694   -0.4497 N   0  0  0  0  0  0  0  0  0  0  0  0
    3.4428   -0.6198   -0.1438 C   0  0  0  0  0  0  0  0  0  0  0  0
    2.1245   -0.4745    0.2636 C   0  0  0  0  0  0  0  0  0  0  0  0
    1.5392    0.7977    0.3167 C   0  0  0  0  0  0  0  0  0  0  0  0
    4.1343    0.5242   -0.4870 C   0  0  0  0  0  0  0  0  0  0  0  0
    2.3276    1.9074   -0.0538 C   0  0  0  0  0  0  0  0  0  0  0  0
    5.5573    0.4419   -0.9346 C   0  0  0  0  0  0  0  0  0  0  0  0
    4.0958   -1.9601   -0.2117 C   0  0  0  0  0  0  0  0  0  0  0  0
    0.2068    0.9785    0.7250 C   0  0  0  0  0  0  0  0  0  0  0  0
    1.3751   -1.6758    0.6313 C   0  0  0  0  0  0  0  0  0  0  0  0
    1.7456    3.1709   -0.0010 C   0  0  0  0  0  0  0  0  0  0  0  0
    6.5369    0.5520    0.2296 C   0  0  0  0  0  0  0  0  0  0  0  0
   -0.3497    2.2535    0.7683 C   0  0  0  0  0  0  0  0  0  0  0  0
    0.4210    3.3509    0.4048 C   0  0  0  0  0  0  0  0  0  0  0  0
   -0.0376   -3.3920   -0.2161 C   0  0  0  0  0  0  0  0  0  0  0  0
   -1.4548   -2.9945    0.1492 C   0  0  0  0  0  0  0  0  0  0  0  0
   -2.9632   -1.3066   -0.5801 C   0  0  0  0  0  0  0  0  0  0  0  0
   -3.1028   -0.1553   -1.3471 C   0  0  0  0  0  0  0  0  0  0  0  0
   -3.7792   -1.5253    0.5244 C   0  0  0  0  0  0  0  0  0  0  0  0
   -4.8926    0.5767    0.1011 C   0  0  0  0  0  0  0  0  0  0  0  0
   -4.0707    0.7894   -1.0055 C   0  0  0  0  0  0  0  0  0  0  0  0
   -4.7470   -0.5807    0.8660 C   0  0  0  0  0  0  0  0  0  0  0  0
   -5.9317    2.6586   -0.3907 C   0  0  0  0  0  0  0  0  0  0  0  0
    5.7538   -0.4660   -1.5148 H   0  0  0  0  0  0  0  0  0  0  0  0
    5.7541    1.2695   -1.6288 H   0  0  0  0  0  0  0  0  0  0  0  0
    4.2132   -2.2669   -1.2566 H   0  0  0  0  0  0  0  0  0  0  0  0
    3.5345   -2.7507    0.2936 H   0  0  0  0  0  0  0  0  0  0  0  0
    5.0767   -1.9555    0.2719 H   0  0  0  0  0  0  0  0  0  0  0  0
   -0.4212    0.1412    1.0178 H   0  0  0  0  0  0  0  0  0  0  0  0
    2.3281    4.0468   -0.2808 H   0  0  0  0  0  0  0  0  0  0  0  0
    6.4134    1.5050    0.7558 H   0  0  0  0  0  0  0  0  0  0  0  0
    7.5664    0.5014   -0.1389 H   0  0  0  0  0  0  0  0  0  0  0  0
    6.3990   -0.2497    0.9610 H   0  0  0  0  0  0  0  0  0  0  0  0
   -1.3797    2.3891    1.0837 H   0  0  0  0  0  0  0  0  0  0  0  0
   -0.0054    4.3494    0.4354 H   0  0  0  0  0  0  0  0  0  0  0  0
    0.4173   -4.0295    0.5500 H   0  0  0  0  0  0  0  0  0  0  0  0
   -0.0358   -3.9523   -1.1571 H   0  0  0  0  0  0  0  0  0  0  0  0
   -2.0600   -3.8936    0.3084 H   0  0  0  0  0  0  0  0  0  0  0  0
   -1.4123   -2.4092    1.0763 H   0  0  0  0  0  0  0  0  0  0  0  0
   -2.4627    0.0137   -2.2085 H   0  0  0  0  0  0  0  0  0  0  0  0
   -3.7178   -2.4250    1.1287 H   0  0  0  0  0  0  0  0  0  0  0  0
   -4.1288    1.6657   -1.6420 H   0  0  0  0  0  0  0  0  0  0  0  0
   -5.3889   -0.7542    1.7254 H   0  0  0  0  0  0  0  0  0  0  0  0
   -6.7328    3.2822    0.0194 H   0  0  0  0  0  0  0  0  0  0  0  0
   -5.0130    3.2539   -0.3548 H   0  0  0  0  0  0  0  0  0  0  0  0
   -6.2198    2.4012   -1.4156 H   0  0  0  0  0  0  0  0  0  0  0  0
  1 14  1  0  0  0  0
  1 19  1  0  0  0  0
  2 20  1  0  0  0  0
  2 21  1  0  0  0  0
  3 14  2  0  0  0  0
  4 24  1  0  0  0  0
  4 27  1  0  0  0  0
  5  9  2  0  0  0  0
  5 10  1  0  0  0  0
  6  7  2  0  0  0  0
  6  9  1  0  0  0  0
  6 12  1  0  0  0  0
  7  8  1  0  0  0  0
  7 14  1  0  0  0  0
  8 10  1  0  0  0  0
  8 13  2  0  0  0  0
  9 11  1  0  0  0  0
 10 15  2  0  0  0  0
 11 16  1  0  0  0  0
 11 28  1  0  0  0  0
 11 29  1  0  0  0  0
 12 30  1  0  0  0  0
 12 31  1  0  0  0  0
 12 32  1  0  0  0  0
 13 17  1  0  0  0  0
 13 33  1  0  0  0  0
 15 18  1  0  0  0  0
 15 34  1  0  0  0  0
 16 35  1  0  0  0  0
 16 36  1  0  0  0  0
 16 37  1  0  0  0  0
 17 18  2  0  0  0  0
 17 38  1  0  0  0  0
 18 39  1  0  0  0  0
 19 20  1  0  0  0  0
 19 40  1  0  0  0  0
 19 41  1  0  0  0  0
 20 42  1  0  0  0  0
 20 43  1  0  0  0  0
 21 22  2  0  0  0  0
 21 23  1  0  0  0  0
 22 25  1  0  0  0  0
 22 44  1  0  0  0  0
 23 26  2  0  0  0  0
 23 45  1  0  0  0  0
 24 25  2  0  0  0  0
 24 26  1  0  0  0  0
 25 46  1  0  0  0  0
 26 47  1  0  0  0  0
 27 48  1  0  0  0  0
 27 49  1  0  0  0  0
 27 50  1  0  0  0  0
M  END
> <PUBCHEM_COMPOUND_CID>
7847063

> <PUBCHEM_CONFORMER_RMSD>
1

> <PUBCHEM_CONFORMER_DIVERSEORDER>
1
6
66
76
17
34
65
96
106
32
29
71
69
24
103
14
18
78
109
37
11
35
68
91
52
81
49
84
100
90
112
51
47
105
28
55
39
70
99
107
45
41
93
10
54
31
58
23
98
85
113
7
67
82
97
40
12
64
114
87
72
89
57
38
4
59
110
9
94
73
8
104
20
5
13
50
95
42
60
62
77
111
56
27
44
83
92
79
33
61
3
108
2
30
16
25
53
43
102
80
26
22
63
48
74
36
46
88
15
75
19
101
21
86

> <PUBCHEM_MMFF94_PARTIAL_CHARGES>
33
1 -0.43
10 0.31
11 0.14
12 0.14
13 -0.15
14 0.63
15 -0.15
17 -0.15
18 -0.15
19 0.28
2 -0.36
20 0.28
21 0.08
22 -0.15
23 -0.15
24 0.08
25 -0.15
26 -0.15
27 0.28
3 -0.57
33 0.15
34 0.15
38 0.15
39 0.15
4 -0.36
44 0.15
45 0.15
46 0.15
47 0.15
5 -0.62
6 -0.14
7 0.09
9 0.17

> <PUBCHEM_EFFECTIVE_ROTOR_COUNT>
8

> <PUBCHEM_PHARMACOPHORE_FEATURES>
8
1 16 hydrophobe
1 2 acceptor
1 3 acceptor
1 4 acceptor
1 5 acceptor
6 21 22 23 24 25 26 rings
6 5 6 7 8 9 10 rings
6 8 10 13 15 17 18 rings

> <PUBCHEM_HEAVY_ATOM_COUNT>
27

> <PUBCHEM_ATOM_DEF_STEREO_COUNT>
0

> <PUBCHEM_ATOM_UDEF_STEREO_COUNT>
0

> <PUBCHEM_BOND_DEF_STEREO_COUNT>
0

> <PUBCHEM_BOND_UDEF_STEREO_COUNT>
0

> <PUBCHEM_ISOTOPIC_ATOM_COUNT>
0

> <PUBCHEM_COMPONENT_COUNT>
1

> <PUBCHEM_CACTVS_TAUTO_COUNT>
2

> <PUBCHEM_CONFORMER_ID>
0077BC9700000001

> <PUBCHEM_MMFF94_ENERGY>
96.5532

> <PUBCHEM_FEATURE_SELFOVERLAP>
40.626

> <PUBCHEM_SHAPE_FINGERPRINT>
10483366 6 18263913505690022454
10906281 52 18267856191478785880
1100329 8 18338235956014997896
11273773 38 18411417358374284645
11578080 2 14331691429701423308
12422481 6 18193304947675954896
12553582 1 18265629838708064937
12633257 1 18271259317004818531
12788726 201 18040994111010399512
12838862 33 18336846263311673401
12925494 130 18411138074421771305
13402501 40 18413387648851001133
1361 2 16393529048030225601
13944108 23 18050569844156412581
14117953 113 18120377811306377359
14617045 38 18412259567217297405
14713325 29 16690192047454588584
14790565 3 18410567392387857385
15081414 286 18261379074935855026
151778 21 18412824668980872069
1601671 61 18410014325580971374
16087824 20 18338231682048369212
16992727 255 18271513235603604340
18608769 82 18267019462993275291
18769570 83 18342462500397852482
19311894 1 18262235512937155751
20465049 17 18339077095263558227
20775438 99 16091826858678345471
21279426 13 18336539520920788134
21585483 110 18269282425405903117
221357 26 18192995907124630999
23559900 14 18189335663718981616
238 59 17835850440177854815
338550 245 18342170038346679324
3680242 22 18341897458215324058
5081480 168 17389626943274457863
6287921 2 17624976037163631549
7226269 152 18411141299530182104

> <PUBCHEM_SHAPE_MULTIPOLES>
527.19
12.65
3.99
1.02
3.3
0.02
0.03
-4.75
-1.62
0.93
0.27
0.29
0.17
-0.02

> <PUBCHEM_SHAPE_SELFOVERLAP>
1137.701

> <PUBCHEM_SHAPE_VOLUME>
291.4

> <PUBCHEM_COORDINATE_TYPE>
2
5
10

$$$$

