11989
  -OEChem-06261206223D

 18 19  0     0  0  0  0  0  0999 V2000
   -0.6590   -1.8150   -0.0353 S   0  0  0  0  0  0  0  0  0  0  0  0
   -3.3678   -0.4828    0.2523 S   0  0  0  0  0  0  0  0  0  0  0  0
   -0.9837    0.7321    0.2077 N   0  0  0  0  0  0  0  0  0  0  0  0
    0.7563   -0.8302   -0.0389 C   0  0  0  0  0  0  0  0  0  0  0  0
    0.3815    0.5094    0.1018 C   0  0  0  0  0  0  0  0  0  0  0  0
    2.1014   -1.2153   -0.1578 C   0  0  0  0  0  0  0  0  0  0  0  0
    1.3906    1.4966    0.1242 C   0  0  0  0  0  0  0  0  0  0  0  0
   -1.6219   -0.4133    0.1479 C   0  0  0  0  0  0  0  0  0  0  0  0
    3.0802   -0.2186   -0.1327 C   0  0  0  0  0  0  0  0  0  0  0  0
    2.7316    1.1203    0.0063 C   0  0  0  0  0  0  0  0  0  0  0  0
   -3.8091    1.1165   -0.4756 C   0  0  0  0  0  0  0  0  0  0  0  0
    2.3809   -2.2586   -0.2666 H   0  0  0  0  0  0  0  0  0  0  0  0
    1.1294    2.5456    0.2324 H   0  0  0  0  0  0  0  0  0  0  0  0
    4.1274   -0.4952   -0.2233 H   0  0  0  0  0  0  0  0  0  0  0  0
    3.5067    1.8816    0.0237 H   0  0  0  0  0  0  0  0  0  0  0  0
   -3.4470    1.9377    0.1490 H   0  0  0  0  0  0  0  0  0  0  0  0
   -4.8978    1.1898   -0.5452 H   0  0  0  0  0  0  0  0  0  0  0  0
   -3.3897    1.2101   -1.4812 H   0  0  0  0  0  0  0  0  0  0  0  0
  1  4  1  0  0  0  0
  1  8  1  0  0  0  0
  2  8  1  0  0  0  0
  2 11  1  0  0  0  0
  3  5  1  0  0  0  0
  3  8  2  0  0  0  0
  4  5  1  0  0  0  0
  4  6  2  0  0  0  0
  5  7  2  0  0  0  0
  6  9  1  0  0  0  0
  6 12  1  0  0  0  0
  7 10  1  0  0  0  0
  7 13  1  0  0  0  0
  9 10  2  0  0  0  0
  9 14  1  0  0  0  0
 10 15  1  0  0  0  0
 11 16  1  0  0  0  0
 11 17  1  0  0  0  0
 11 18  1  0  0  0  0
M  END
> <PUBCHEM_COMPOUND_CID>
11989

> <PUBCHEM_CONFORMER_RMSD>
0.4

> <PUBCHEM_CONFORMER_DIVERSEORDER>
1
5
2
3
4

> <PUBCHEM_MMFF94_PARTIAL_CHARGES>
15
1 -0.08
10 -0.15
11 0.23
12 0.15
13 0.15
14 0.15
15 0.15
2 -0.29
3 -0.57
4 0.04
5 0.23
6 -0.15
7 -0.15
8 0.43
9 -0.15

> <PUBCHEM_EFFECTIVE_ROTOR_COUNT>
1

> <PUBCHEM_PHARMACOPHORE_FEATURES>
4
1 11 hydrophobe
1 3 acceptor
5 1 3 4 5 8 rings
6 4 5 6 7 9 10 rings

> <PUBCHEM_HEAVY_ATOM_COUNT>
11

> <PUBCHEM_ATOM_DEF_STEREO_COUNT>
0

> <PUBCHEM_ATOM_UDEF_STEREO_COUNT>
0

> <PUBCHEM_BOND_DEF_STEREO_COUNT>
0

> <PUBCHEM_BOND_UDEF_STEREO_COUNT>
0

> <PUBCHEM_ISOTOPIC_ATOM_COUNT>
0

> <PUBCHEM_COMPONENT_COUNT>
1

> <PUBCHEM_CACTVS_TAUTO_COUNT>
1

> <PUBCHEM_CONFORMER_ID>
00002ED500000001

> <PUBCHEM_MMFF94_ENERGY>
17.4339

> <PUBCHEM_FEATURE_SELFOVERLAP>
20.368

> <PUBCHEM_SHAPE_FINGERPRINT>
10219947 1 18335698360107550983
10608611 8 18411984620195094745
11471102 20 18409733984217014749
12932764 1 17677053438939409513
13380535 76 18408887304350327214
13922767 16 18408892861948032320
14144814 61 18408037416321651497
14325111 11 18410855443280653977
14897335 6 18335144137564507474
14911166 2 18336538391618461886
14993402 34 18260826016281443678
15219456 202 18413669115068972009
15775835 57 18411978035756704223
16945 1 18335413556689461034
17844478 74 18130780127876871595
18186145 218 18333723637413904397
20201158 50 18408601478555778542
20645477 70 18335703896674233047
21040471 1 18265050220070671570
21501502 16 18266180517639273750
23235685 24 18336270058909269848
23402539 116 18260559930198869964
23402655 69 18263374719370015485
23552423 10 18198060266429902486
23559900 14 18115015292179003108
25 1 18341053029295874175
2748010 2 18119803617154955102
528886 8 18408889503505126938
53812653 166 18261678065058120528

> <PUBCHEM_SHAPE_MULTIPOLES>
229.09
5.64
1.7
0.66
3.26
0.18
-0.01
-1.36
-0.41
-0.12
-0.05
0.12
0
0.3

> <PUBCHEM_SHAPE_SELFOVERLAP>
464.405

> <PUBCHEM_SHAPE_VOLUME>
136.2

> <PUBCHEM_COORDINATE_TYPE>
2
5
10

$$$$

