17395478
  -OEChem-06241222502D

 37 40  0     0  0  0  0  0  0999 V2000
    6.7619    1.3736    0.0000 S   0  0  0  0  0  0  0  0  0  0  0  0
    3.7320    2.7396    0.0000 N   0  0  0  0  0  0  0  0  0  0  0  0
    4.6783    1.4349    0.0000 N   0  0  0  0  0  0  0  0  0  0  0  0
    8.3497    0.5646    0.0000 N   0  0  0  0  0  0  0  0  0  0  0  0
    9.3007    0.8736    0.0000 N   0  0  0  0  0  0  0  0  0  0  0  0
    8.3497    2.1826    0.0000 N   0  0  0  0  0  0  0  0  0  0  0  0
    9.3007    1.8736    0.0000 N   0  0  0  0  0  0  0  0  0  0  0  0
    5.2619    2.2396    0.0000 C   0  0  0  0  0  0  0  0  0  0  0  0
    3.7320    1.7396    0.0000 C   0  0  0  0  0  0  0  0  0  0  0  0
    4.6783    3.0444    0.0000 C   0  0  0  0  0  0  0  0  0  0  0  0
    6.2619    2.2396    0.0000 C   0  0  0  0  0  0  0  0  0  0  0  0
    8.0406   -0.3865    0.0000 C   0  0  0  0  0  0  0  0  0  0  0  0
    2.8660    3.2396    0.0000 C   0  0  0  0  0  0  0  0  0  0  0  0
    2.8660    1.2396    0.0000 C   0  0  0  0  0  0  0  0  0  0  0  0
    7.7619    1.3736    0.0000 C   0  0  0  0  0  0  0  0  0  0  0  0
    7.4226   -2.2886    0.0000 C   0  0  0  0  0  0  0  0  0  0  0  0
    7.0625   -0.5944    0.0000 C   0  0  0  0  0  0  0  0  0  0  0  0
    8.7098   -1.1296    0.0000 C   0  0  0  0  0  0  0  0  0  0  0  0
    2.0000    2.7396    0.0000 C   0  0  0  0  0  0  0  0  0  0  0  0
    2.0000    1.7396    0.0000 C   0  0  0  0  0  0  0  0  0  0  0  0
    6.7535   -1.5454    0.0000 C   0  0  0  0  0  0  0  0  0  0  0  0
    8.4008   -2.0807    0.0000 C   0  0  0  0  0  0  0  0  0  0  0  0
    7.1136   -3.2396    0.0000 C   0  0  0  0  0  0  0  0  0  0  0  0
    4.8709    3.6337    0.0000 H   0  0  0  0  0  0  0  0  0  0  0  0
    6.8445    2.4517    0.0000 H   0  0  0  0  0  0  0  0  0  0  0  0
    6.1542    2.8502    0.0000 H   0  0  0  0  0  0  0  0  0  0  0  0
    2.8660    3.8596    0.0000 H   0  0  0  0  0  0  0  0  0  0  0  0
    2.8660    0.6196    0.0000 H   0  0  0  0  0  0  0  0  0  0  0  0
    6.6476   -0.1336    0.0000 H   0  0  0  0  0  0  0  0  0  0  0  0
    9.3162   -1.0007    0.0000 H   0  0  0  0  0  0  0  0  0  0  0  0
    1.4631    3.0496    0.0000 H   0  0  0  0  0  0  0  0  0  0  0  0
    1.4631    1.4296    0.0000 H   0  0  0  0  0  0  0  0  0  0  0  0
    6.1470   -1.6743    0.0000 H   0  0  0  0  0  0  0  0  0  0  0  0
    8.8156   -2.5414    0.0000 H   0  0  0  0  0  0  0  0  0  0  0  0
    6.5239   -3.0480    0.0000 H   0  0  0  0  0  0  0  0  0  0  0  0
    6.9220   -3.8293    0.0000 H   0  0  0  0  0  0  0  0  0  0  0  0
    7.7032   -3.4312    0.0000 H   0  0  0  0  0  0  0  0  0  0  0  0
  1 11  1  0  0  0  0
  1 15  1  0  0  0  0
  2  9  1  0  0  0  0
  2 10  1  0  0  0  0
  2 13  1  0  0  0  0
  3  8  1  0  0  0  0
  3  9  2  0  0  0  0
  4  5  1  0  0  0  0
  4 12  1  0  0  0  0
  4 15  1  0  0  0  0
  5  7  2  0  0  0  0
  6  7  1  0  0  0  0
  6 15  2  0  0  0  0
  8 10  2  0  0  0  0
  8 11  1  0  0  0  0
  9 14  1  0  0  0  0
 10 24  1  0  0  0  0
 11 25  1  0  0  0  0
 11 26  1  0  0  0  0
 12 17  2  0  0  0  0
 12 18  1  0  0  0  0
 13 19  2  0  0  0  0
 13 27  1  0  0  0  0
 14 20  2  0  0  0  0
 14 28  1  0  0  0  0
 16 21  2  0  0  0  0
 16 22  1  0  0  0  0
 16 23  1  0  0  0  0
 17 21  1  0  0  0  0
 17 29  1  0  0  0  0
 18 22  2  0  0  0  0
 18 30  1  0  0  0  0
 19 20  1  0  0  0  0
 19 31  1  0  0  0  0
 20 32  1  0  0  0  0
 21 33  1  0  0  0  0
 22 34  1  0  0  0  0
 23 35  1  0  0  0  0
 23 36  1  0  0  0  0
 23 37  1  0  0  0  0
M  END
> <PUBCHEM_COMPOUND_CID>
17395478

> <PUBCHEM_COMPOUND_CANONICALIZED>
1

> <PUBCHEM_CACTVS_COMPLEXITY>
389

> <PUBCHEM_CACTVS_HBOND_ACCEPTOR>
5

> <PUBCHEM_CACTVS_HBOND_DONOR>
0

> <PUBCHEM_CACTVS_ROTATABLE_BOND>
4

> <PUBCHEM_CACTVS_SUBSKEYS>
AAADccB7gABAAAAAAAAAAAAAAAAAAWLAAAA8QAAAAAAAAFgB/AAAHAQIAAAADAjFXwS/8J8MGAiiAzZnZACClC9xErAd2CA4dJiIaOLgmZGUIAhogALIyCcQgAAOCAAAAAAAAAAQAAAAAAAAAAAAAAAAAA==

> <PUBCHEM_IUPAC_OPENEYE_NAME>
2-[[1-(p-tolyl)tetrazol-5-yl]sulfanylmethyl]imidazo[1,2-a]pyridine

> <PUBCHEM_IUPAC_CAS_NAME>
2-[[[1-(4-methylphenyl)-5-tetrazolyl]thio]methyl]imidazo[1,2-a]pyridine

> <PUBCHEM_IUPAC_NAME>
2-[[1-(4-methylphenyl)tetrazol-5-yl]sulfanylmethyl]imidazo[1,2-a]pyridine

> <PUBCHEM_IUPAC_SYSTEMATIC_NAME>
2-[[1-(4-methylphenyl)-1,2,3,4-tetrazol-5-yl]sulfanylmethyl]imidazo[1,2-a]pyridine

> <PUBCHEM_IUPAC_TRADITIONAL_NAME>
2-[[[1-(p-tolyl)tetrazol-5-yl]thio]methyl]imidazo[1,2-a]pyridine

> <PUBCHEM_IUPAC_INCHI>
InChI=1S/C16H14N6S/c1-12-5-7-14(8-6-12)22-16(18-19-20-22)23-11-13-10-21-9-3-2-4-15(21)17-13/h2-10H,11H2,1H3

> <PUBCHEM_IUPAC_INCHIKEY>
QWUVVORTKVOJMW-UHFFFAOYSA-N

> <PUBCHEM_XLOGP3_AA>
3.8

> <PUBCHEM_EXACT_MASS>
322.100065

> <PUBCHEM_MOLECULAR_FORMULA>
C16H14N6S

> <PUBCHEM_MOLECULAR_WEIGHT>
322.38756

> <PUBCHEM_OPENEYE_CAN_SMILES>
CC1=CC=C(C=C1)N2C(=NN=N2)SCC3=CN4C=CC=CC4=N3

> <PUBCHEM_OPENEYE_ISO_SMILES>
CC1=CC=C(C=C1)N2C(=NN=N2)SCC3=CN4C=CC=CC4=N3

> <PUBCHEM_CACTVS_TPSA>
86.2

> <PUBCHEM_MONOISOTOPIC_WEIGHT>
322.100065

> <PUBCHEM_TOTAL_CHARGE>
0

> <PUBCHEM_HEAVY_ATOM_COUNT>
23

> <PUBCHEM_ATOM_DEF_STEREO_COUNT>
0

> <PUBCHEM_ATOM_UDEF_STEREO_COUNT>
0

> <PUBCHEM_BOND_DEF_STEREO_COUNT>
0

> <PUBCHEM_BOND_UDEF_STEREO_COUNT>
0

> <PUBCHEM_ISOTOPIC_ATOM_COUNT>
0

> <PUBCHEM_COMPONENT_COUNT>
1

> <PUBCHEM_CACTVS_TAUTO_COUNT>
1

> <PUBCHEM_COORDINATE_TYPE>
1
5
255

> <PUBCHEM_BONDANNOTATIONS>
12  17  8
12  18  8
13  19  8
14  20  8
16  21  8
16  22  8
17  21  8
18  22  8
19  20  8
2  10  8
2  13  8
2  9  8
3  8  8
3  9  8
4  15  8
4  5  8
5  7  8
6  15  8
6  7  8
8  10  8
9  14  8

$$$$

