17395920
  -OEChem-06241222533D

 43 44  0     0  0  0  0  0  0999 V2000
    3.9708    2.0678   -1.0088 O   0  0  0  0  0  0  0  0  0  0  0  0
   -0.0717   -0.5211   -1.6877 O   0  0  0  0  0  0  0  0  0  0  0  0
   -7.1087    0.3219    1.0032 O   0  0  0  0  0  0  0  0  0  0  0  0
   -7.0570   -0.2970   -1.2134 O   0  0  0  0  0  0  0  0  0  0  0  0
    5.9553   -0.9198    0.6996 N   0  0  0  0  0  0  0  0  0  0  0  0
   -0.8454    0.0819    0.4464 N   0  0  0  0  0  0  0  0  0  0  0  0
    5.8889    1.3326    0.0044 N   0  0  0  0  0  0  0  0  0  0  0  0
    2.6018   -0.3553   -0.9622 C   0  0  0  0  0  0  0  0  0  0  0  0
    3.9735   -0.2218   -0.3694 C   0  0  0  0  0  0  0  0  0  0  0  0
    1.5166   -0.0554    0.0636 C   0  0  0  0  0  0  0  0  0  0  0  0
    4.6899   -1.1950    0.2327 C   0  0  0  0  0  0  0  0  0  0  0  0
    4.6061    1.1541   -0.4871 C   0  0  0  0  0  0  0  0  0  0  0  0
    0.1171   -0.1996   -0.5192 C   0  0  0  0  0  0  0  0  0  0  0  0
    6.5008    0.3296    0.5611 C   0  0  0  0  0  0  0  0  0  0  0  0
    4.2108   -2.6006    0.4626 C   0  0  0  0  0  0  0  0  0  0  0  0
   -2.2522    0.0580    0.2949 C   0  0  0  0  0  0  0  0  0  0  0  0
    7.8955    0.5418    1.0870 C   0  0  0  0  0  0  0  0  0  0  0  0
   -2.8155   -0.2779   -0.9362 C   0  0  0  0  0  0  0  0  0  0  0  0
   -3.0755    0.3716    1.3763 C   0  0  0  0  0  0  0  0  0  0  0  0
   -5.0255    0.0133   -0.0044 C   0  0  0  0  0  0  0  0  0  0  0  0
   -4.2021   -0.3003   -1.0858 C   0  0  0  0  0  0  0  0  0  0  0  0
   -4.4622    0.3493    1.2266 C   0  0  0  0  0  0  0  0  0  0  0  0
   -6.4711   -0.0107   -0.1608 C   0  0  0  0  0  0  0  0  0  0  0  0
   -8.5401    0.3326    0.9767 C   0  0  0  0  0  0  0  0  0  0  0  0
    2.4624   -1.3655   -1.3670 H   0  0  0  0  0  0  0  0  0  0  0  0
    2.4913    0.2995   -1.8359 H   0  0  0  0  0  0  0  0  0  0  0  0
    1.6231    0.9691    0.4414 H   0  0  0  0  0  0  0  0  0  0  0  0
    1.5996   -0.7375    0.9189 H   0  0  0  0  0  0  0  0  0  0  0  0
    6.4661   -1.6754    1.1438 H   0  0  0  0  0  0  0  0  0  0  0  0
    4.3137   -2.8669    1.5204 H   0  0  0  0  0  0  0  0  0  0  0  0
    3.1608   -2.7483    0.1985 H   0  0  0  0  0  0  0  0  0  0  0  0
    4.8080   -3.3035   -0.1279 H   0  0  0  0  0  0  0  0  0  0  0  0
   -0.5167    0.3364    1.3755 H   0  0  0  0  0  0  0  0  0  0  0  0
    7.9196    0.3126    2.1561 H   0  0  0  0  0  0  0  0  0  0  0  0
    8.2142    1.5768    0.9355 H   0  0  0  0  0  0  0  0  0  0  0  0
    8.5857   -0.1257    0.5634 H   0  0  0  0  0  0  0  0  0  0  0  0
   -2.2449   -0.5324   -1.8181 H   0  0  0  0  0  0  0  0  0  0  0  0
   -2.6489    0.6351    2.3409 H   0  0  0  0  0  0  0  0  0  0  0  0
   -4.6217   -0.5647   -2.0531 H   0  0  0  0  0  0  0  0  0  0  0  0
   -5.0636    0.6005    2.0957 H   0  0  0  0  0  0  0  0  0  0  0  0
   -8.8970    0.6144    1.9707 H   0  0  0  0  0  0  0  0  0  0  0  0
   -8.9200   -0.6645    0.7349 H   0  0  0  0  0  0  0  0  0  0  0  0
   -8.8982    1.0691    0.2513 H   0  0  0  0  0  0  0  0  0  0  0  0
  1 12  2  0  0  0  0
  2 13  2  0  0  0  0
  3 23  1  0  0  0  0
  3 24  1  0  0  0  0
  4 23  2  0  0  0  0
  5 11  1  0  0  0  0
  5 14  1  0  0  0  0
  5 29  1  0  0  0  0
  6 13  1  0  0  0  0
  6 16  1  0  0  0  0
  6 33  1  0  0  0  0
  7 12  1  0  0  0  0
  7 14  2  0  0  0  0
  8  9  1  0  0  0  0
  8 10  1  0  0  0  0
  8 25  1  0  0  0  0
  8 26  1  0  0  0  0
  9 11  2  0  0  0  0
  9 12  1  0  0  0  0
 10 13  1  0  0  0  0
 10 27  1  0  0  0  0
 10 28  1  0  0  0  0
 11 15  1  0  0  0  0
 14 17  1  0  0  0  0
 15 30  1  0  0  0  0
 15 31  1  0  0  0  0
 15 32  1  0  0  0  0
 16 18  2  0  0  0  0
 16 19  1  0  0  0  0
 17 34  1  0  0  0  0
 17 35  1  0  0  0  0
 17 36  1  0  0  0  0
 18 21  1  0  0  0  0
 18 37  1  0  0  0  0
 19 22  2  0  0  0  0
 19 38  1  0  0  0  0
 20 21  2  0  0  0  0
 20 22  1  0  0  0  0
 20 23  1  0  0  0  0
 21 39  1  0  0  0  0
 22 40  1  0  0  0  0
 24 41  1  0  0  0  0
 24 42  1  0  0  0  0
 24 43  1  0  0  0  0
M  END
> <PUBCHEM_COMPOUND_CID>
17395920

> <PUBCHEM_CONFORMER_RMSD>
0.8

> <PUBCHEM_CONFORMER_DIVERSEORDER>
2
36
38
14
37
13
56
61
23
22
54
9
60
17
47
6
44
31
5
24
3
16
34
45
55
10
48
40
30
51
49
52
20
39
41
19
12
1
15
43
57
59
32
53
28
46
4
58
35
7
25
50
21
29
42
11
27
26
18
8
33

> <PUBCHEM_MMFF94_PARTIAL_CHARGES>
30
1 -0.57
10 0.06
11 -0.04
12 0.77
13 0.57
14 0.44
15 0.14
16 0.12
17 0.06
18 -0.15
19 -0.15
2 -0.57
20 0.09
21 -0.15
22 -0.15
23 0.63
24 0.28
29 0.4
3 -0.43
33 0.37
37 0.15
38 0.15
39 0.15
4 -0.57
40 0.15
5 -0.55
6 -0.55
7 -0.66
8 0.14
9 -0.12

> <PUBCHEM_EFFECTIVE_ROTOR_COUNT>
7

> <PUBCHEM_PHARMACOPHORE_FEATURES>
8
1 1 acceptor
1 2 acceptor
1 4 acceptor
1 5 donor
1 6 donor
1 7 donor
6 16 18 19 20 21 22 rings
6 5 7 9 11 12 14 rings

> <PUBCHEM_HEAVY_ATOM_COUNT>
24

> <PUBCHEM_ATOM_DEF_STEREO_COUNT>
0

> <PUBCHEM_ATOM_UDEF_STEREO_COUNT>
0

> <PUBCHEM_BOND_DEF_STEREO_COUNT>
0

> <PUBCHEM_BOND_UDEF_STEREO_COUNT>
0

> <PUBCHEM_ISOTOPIC_ATOM_COUNT>
0

> <PUBCHEM_COMPONENT_COUNT>
1

> <PUBCHEM_CACTVS_TAUTO_COUNT>
9

> <PUBCHEM_CONFORMER_ID>
010970D000000002

> <PUBCHEM_MMFF94_ENERGY>
67.096

> <PUBCHEM_FEATURE_SELFOVERLAP>
40.633

> <PUBCHEM_SHAPE_FINGERPRINT>
10 15 17603584136617739171
10162869 55 18339934713911081471
10968037 39 16660363680383522853
11315181 36 14923941237788909099
11524674 6 17060335211168523083
11638347 137 17917710218710370610
11724838 91 18259989254026622550
12236239 1 18113337526452547110
12516196 113 17632295683273702181
12592606 108 12967127199084538073
13073987 5 18271528718248042368
13533116 47 18340206383847018962
14123256 10 16660362575827977841
14251764 18 18041000635012519373
14251764 46 18410856555350097043
15348495 7 17274532122961946904
15419008 47 17131840862584471949
15840311 113 18041000606203873736
17844677 252 18201154450827014108
20157964 124 18413669115227376970
20281389 69 17967532393320917897
21150785 3 5400801669813301688
21267235 1 13973962104404808653
21315763 28 14476957879181076583
21344244 78 18116165522995865866
22224240 67 18342460330875378810
23035841 295 13901907817238471373
23559900 14 15051439462866725893
300161 21 18040999544396872414
3383291 50 16056589951165940897
34797466 226 16486964094485317710
3545911 37 15626226818744582145
4073 2 17846210008401177810
4325135 7 17167860863536390000
4340502 62 18272369776314639634
5758199 1 16588019122190021223

> <PUBCHEM_SHAPE_MULTIPOLES>
455.49
24.41
1.32
1.26
13.07
0.34
-0.08
-4.57
5.69
-2.27
0.1
0.18
0
-1.78

> <PUBCHEM_SHAPE_SELFOVERLAP>
957.368

> <PUBCHEM_SHAPE_VOLUME>
255.8

> <PUBCHEM_COORDINATE_TYPE>
2
5
10

$$$$

