17395998
  -OEChem-06241222532D

 55 58  0     1  0  0  0  0  0999 V2000
    5.4166    2.0759    0.0000 S   0  0  0  0  0  0  0  0  0  0  0  0
    2.0000   -2.0173    0.0000 F   0  0  0  0  0  0  0  0  0  0  0  0
    2.8660   -3.5173    0.0000 F   0  0  0  0  0  0  0  0  0  0  0  0
    7.1962   -1.0173    0.0000 O   0  0  0  0  0  0  0  0  0  0  0  0
    3.7320   -2.0173    0.0000 O   0  0  0  0  0  0  0  0  0  0  0  0
    7.1962    0.9827    0.0000 N   0  0  0  0  0  0  0  0  0  0  0  0
    5.4641   -1.0173    0.0000 N   0  0  0  0  0  0  0  0  0  0  0  0
   10.6882    1.9480    0.0000 C   0  0  0  0  0  0  0  0  0  0  0  0
   11.5942    2.4618    0.0000 C   0  0  0  0  0  0  0  0  0  0  0  0
    9.7942    2.4827    0.0000 C   0  0  0  0  0  0  0  0  0  0  0  0
   11.5942    3.5035    0.0000 C   0  0  0  0  0  0  0  0  0  0  0  0
   10.6882    4.0173    0.0000 C   0  0  0  0  0  0  0  0  0  0  0  0
    9.7942    3.4827    0.0000 C   0  0  0  0  0  0  0  0  0  0  0  0
    8.0622    2.4827    0.0000 C   0  0  0  0  0  0  0  0  0  0  0  0
    8.9282    1.9827    0.0000 C   0  0  0  0  0  0  0  0  0  0  0  0
    7.1962    1.9827    0.0000 C   0  0  3  0  0  0  0  0  0  0  0  0
    8.9282    3.9827    0.0000 C   0  0  0  0  0  0  0  0  0  0  0  0
    8.0622    3.4827    0.0000 C   0  0  0  0  0  0  0  0  0  0  0  0
    6.3301    2.4827    0.0000 C   0  0  0  0  0  0  0  0  0  0  0  0
    6.3301    0.4827    0.0000 C   0  0  0  0  0  0  0  0  0  0  0  0
    6.2256    3.4772    0.0000 C   0  0  0  0  0  0  0  0  0  0  0  0
    6.3301   -0.5173    0.0000 C   0  0  0  0  0  0  0  0  0  0  0  0
    5.2474    3.6851    0.0000 C   0  0  0  0  0  0  0  0  0  0  0  0
    4.7474    2.8191    0.0000 C   0  0  0  0  0  0  0  0  0  0  0  0
    5.4641   -2.0173    0.0000 C   0  0  0  0  0  0  0  0  0  0  0  0
    4.5981   -2.5173    0.0000 C   0  0  0  0  0  0  0  0  0  0  0  0
    6.3301   -2.5173    0.0000 C   0  0  0  0  0  0  0  0  0  0  0  0
    4.5981   -3.5173    0.0000 C   0  0  0  0  0  0  0  0  0  0  0  0
    6.3301   -3.5173    0.0000 C   0  0  0  0  0  0  0  0  0  0  0  0
    5.4641   -4.0173    0.0000 C   0  0  0  0  0  0  0  0  0  0  0  0
    2.8660   -2.5173    0.0000 C   0  0  0  0  0  0  0  0  0  0  0  0
   10.2836    1.4782    0.0000 H   0  0  0  0  0  0  0  0  0  0  0  0
   11.0818    1.4690    0.0000 H   0  0  0  0  0  0  0  0  0  0  0  0
   11.8033    1.8782    0.0000 H   0  0  0  0  0  0  0  0  0  0  0  0
   12.2051    2.5680    0.0000 H   0  0  0  0  0  0  0  0  0  0  0  0
   12.2051    3.3974    0.0000 H   0  0  0  0  0  0  0  0  0  0  0  0
   11.8033    4.0872    0.0000 H   0  0  0  0  0  0  0  0  0  0  0  0
   11.0818    4.4963    0.0000 H   0  0  0  0  0  0  0  0  0  0  0  0
   10.2836    4.4871    0.0000 H   0  0  0  0  0  0  0  0  0  0  0  0
    8.9282    1.3627    0.0000 H   0  0  0  0  0  0  0  0  0  0  0  0
    6.6592    1.6727    0.0000 H   0  0  0  0  0  0  0  0  0  0  0  0
    8.9282    4.6027    0.0000 H   0  0  0  0  0  0  0  0  0  0  0  0
    7.5252    3.7927    0.0000 H   0  0  0  0  0  0  0  0  0  0  0  0
    7.7331    0.6727    0.0000 H   0  0  0  0  0  0  0  0  0  0  0  0
    6.1181    1.0653    0.0000 H   0  0  0  0  0  0  0  0  0  0  0  0
    5.7196    0.3750    0.0000 H   0  0  0  0  0  0  0  0  0  0  0  0
    6.6864    3.8920    0.0000 H   0  0  0  0  0  0  0  0  0  0  0  0
    4.9953    4.2515    0.0000 H   0  0  0  0  0  0  0  0  0  0  0  0
    4.1308    2.7543    0.0000 H   0  0  0  0  0  0  0  0  0  0  0  0
    4.9272   -0.7073    0.0000 H   0  0  0  0  0  0  0  0  0  0  0  0
    6.8671   -2.2073    0.0000 H   0  0  0  0  0  0  0  0  0  0  0  0
    4.0611   -3.8273    0.0000 H   0  0  0  0  0  0  0  0  0  0  0  0
    6.8671   -3.8273    0.0000 H   0  0  0  0  0  0  0  0  0  0  0  0
    5.4641   -4.6373    0.0000 H   0  0  0  0  0  0  0  0  0  0  0  0
    2.8660   -1.8973    0.0000 H   0  0  0  0  0  0  0  0  0  0  0  0
  1 19  1  0  0  0  0
  1 24  1  0  0  0  0
  2 31  1  0  0  0  0
  3 31  1  0  0  0  0
  4 22  2  0  0  0  0
  5 26  1  0  0  0  0
  5 31  1  0  0  0  0
  6 16  1  0  0  0  0
  6 20  1  0  0  0  0
  6 44  1  0  0  0  0
  7 22  1  0  0  0  0
  7 25  1  0  0  0  0
  7 50  1  0  0  0  0
  8  9  1  0  0  0  0
  8 10  1  0  0  0  0
  8 32  1  0  0  0  0
  8 33  1  0  0  0  0
  9 11  1  0  0  0  0
  9 34  1  0  0  0  0
  9 35  1  0  0  0  0
 10 13  2  0  0  0  0
 10 15  1  0  0  0  0
 11 12  1  0  0  0  0
 11 36  1  0  0  0  0
 11 37  1  0  0  0  0
 12 13  1  0  0  0  0
 12 38  1  0  0  0  0
 12 39  1  0  0  0  0
 13 17  1  0  0  0  0
 14 15  2  0  0  0  0
 14 16  1  0  0  0  0
 14 18  1  0  0  0  0
 15 40  1  0  0  0  0
 16 19  1  0  0  0  0
 16 41  1  0  0  0  0
 17 18  2  0  0  0  0
 17 42  1  0  0  0  0
 18 43  1  0  0  0  0
 19 21  2  0  0  0  0
 20 22  1  0  0  0  0
 20 45  1  0  0  0  0
 20 46  1  0  0  0  0
 21 23  1  0  0  0  0
 21 47  1  0  0  0  0
 23 24  2  0  0  0  0
 23 48  1  0  0  0  0
 24 49  1  0  0  0  0
 25 26  1  0  0  0  0
 25 27  2  0  0  0  0
 26 28  2  0  0  0  0
 27 29  1  0  0  0  0
 27 51  1  0  0  0  0
 28 30  1  0  0  0  0
 28 52  1  0  0  0  0
 29 30  2  0  0  0  0
 29 53  1  0  0  0  0
 30 54  1  0  0  0  0
 31 55  1  0  0  0  0
M  END
> <PUBCHEM_COMPOUND_CID>
17395998

> <PUBCHEM_COMPOUND_CANONICALIZED>
1

> <PUBCHEM_CACTVS_COMPLEXITY>
582

> <PUBCHEM_CACTVS_HBOND_ACCEPTOR>
6

> <PUBCHEM_CACTVS_HBOND_DONOR>
2

> <PUBCHEM_CACTVS_ROTATABLE_BOND>
8

> <PUBCHEM_CACTVS_SUBSKEYS>
AAADceB7MYBAAAAAAAAAAAAAAAAAASAAAAAwYMAAAAAAAADB0AAAHwQQAAAADCzF2Bawx4LABAiMAiVSUACDCIAhKhBIiJiPbIgOZiLksbuVMChk1BH46AeQwMAOwAACAAAQEACAAAQAACAgAAAAAAAAAA==

> <PUBCHEM_IUPAC_OPENEYE_NAME>
N-[2-(difluoromethoxy)phenyl]-2-[[tetralin-6-yl(2-thienyl)methyl]amino]acetamide

> <PUBCHEM_IUPAC_CAS_NAME>
N-[2-(difluoromethoxy)phenyl]-2-[[5,6,7,8-tetrahydronaphthalen-2-yl(thiophen-2-yl)methyl]amino]acetamide

> <PUBCHEM_IUPAC_NAME>
N-[2-(difluoromethoxy)phenyl]-2-[[5,6,7,8-tetrahydronaphthalen-2-yl(thiophen-2-yl)methyl]amino]acetamide

> <PUBCHEM_IUPAC_SYSTEMATIC_NAME>
N-[2-[bis(fluoranyl)methoxy]phenyl]-2-[[5,6,7,8-tetrahydronaphthalen-2-yl(thiophen-2-yl)methyl]amino]ethanamide

> <PUBCHEM_IUPAC_TRADITIONAL_NAME>
N-[2-(difluoromethoxy)phenyl]-2-[[tetralin-6-yl(2-thienyl)methyl]amino]acetamide

> <PUBCHEM_IUPAC_INCHI>
InChI=1S/C24H24F2N2O2S/c25-24(26)30-20-9-4-3-8-19(20)28-22(29)15-27-23(21-10-5-13-31-21)18-12-11-16-6-1-2-7-17(16)14-18/h3-5,8-14,23-24,27H,1-2,6-7,15H2,(H,28,29)

> <PUBCHEM_IUPAC_INCHIKEY>
QYLXPAJZUZTEPQ-UHFFFAOYSA-N

> <PUBCHEM_XLOGP3_AA>
5.9

> <PUBCHEM_EXACT_MASS>
442.152655

> <PUBCHEM_MOLECULAR_FORMULA>
C24H24F2N2O2S

> <PUBCHEM_MOLECULAR_WEIGHT>
442.521366

> <PUBCHEM_OPENEYE_CAN_SMILES>
C1CCC2=C(C1)C=CC(=C2)C(C3=CC=CS3)NCC(=O)NC4=CC=CC=C4OC(F)F

> <PUBCHEM_OPENEYE_ISO_SMILES>
C1CCC2=C(C1)C=CC(=C2)C(C3=CC=CS3)NCC(=O)NC4=CC=CC=C4OC(F)F

> <PUBCHEM_CACTVS_TPSA>
78.6

> <PUBCHEM_MONOISOTOPIC_WEIGHT>
442.152655

> <PUBCHEM_TOTAL_CHARGE>
0

> <PUBCHEM_HEAVY_ATOM_COUNT>
31

> <PUBCHEM_ATOM_DEF_STEREO_COUNT>
0

> <PUBCHEM_ATOM_UDEF_STEREO_COUNT>
1

> <PUBCHEM_BOND_DEF_STEREO_COUNT>
0

> <PUBCHEM_BOND_UDEF_STEREO_COUNT>
0

> <PUBCHEM_ISOTOPIC_ATOM_COUNT>
0

> <PUBCHEM_COMPONENT_COUNT>
1

> <PUBCHEM_CACTVS_TAUTO_COUNT>
3

> <PUBCHEM_COORDINATE_TYPE>
1
5
255

> <PUBCHEM_BONDANNOTATIONS>
1  19  8
1  24  8
10  13  8
10  15  8
13  17  8
14  15  8
14  18  8
17  18  8
19  21  8
21  23  8
23  24  8
25  26  8
25  27  8
26  28  8
27  29  8
28  30  8
29  30  8
16  6  3

$$$$

