10276
  -OEChem-06261204253D

 27 27  0     0  0  0  0  0  0999 V2000
   -1.8787   -1.7630   -0.2012 O   0  0  0  0  0  0  0  0  0  0  0  0
    2.2592    1.8302    0.4166 O   0  0  0  0  0  0  0  0  0  0  0  0
    2.7853   -0.8872    0.1559 O   0  0  0  0  0  0  0  0  0  0  0  0
   -2.5753    2.2621   -0.4410 O   0  0  0  0  0  0  0  0  0  0  0  0
   -3.4904    0.3795    0.4449 O   0  0  0  0  0  0  0  0  0  0  0  0
   -1.1284    0.4977    0.0836 C   0  0  0  0  0  0  0  0  0  0  0  0
   -0.8644   -0.8657   -0.0478 C   0  0  0  0  0  0  0  0  0  0  0  0
    1.2400    0.9390    0.2642 C   0  0  0  0  0  0  0  0  0  0  0  0
    1.5041   -0.4244    0.1328 C   0  0  0  0  0  0  0  0  0  0  0  0
   -0.0762    1.4000    0.2396 C   0  0  0  0  0  0  0  0  0  0  0  0
    0.4519   -1.3268   -0.0232 C   0  0  0  0  0  0  0  0  0  0  0  0
   -2.4951    0.9999    0.0605 C   0  0  0  0  0  0  0  0  0  0  0  0
   -1.5150   -3.1359   -0.3280 C   0  0  0  0  0  0  0  0  0  0  0  0
    2.8143    2.3892   -0.7722 C   0  0  0  0  0  0  0  0  0  0  0  0
    2.9686   -2.2945    0.0154 C   0  0  0  0  0  0  0  0  0  0  0  0
   -0.2578    2.4657    0.3574 H   0  0  0  0  0  0  0  0  0  0  0  0
    0.6584   -2.3808   -0.1247 H   0  0  0  0  0  0  0  0  0  0  0  0
   -2.4453   -3.7028   -0.4411 H   0  0  0  0  0  0  0  0  0  0  0  0
   -1.0281   -3.5131    0.5780 H   0  0  0  0  0  0  0  0  0  0  0  0
   -0.9262   -3.3188   -1.2336 H   0  0  0  0  0  0  0  0  0  0  0  0
    2.0542    2.9537   -1.3216 H   0  0  0  0  0  0  0  0  0  0  0  0
    3.2323    1.6032   -1.4092 H   0  0  0  0  0  0  0  0  0  0  0  0
    3.6188    3.0724   -0.4864 H   0  0  0  0  0  0  0  0  0  0  0  0
    2.6255   -2.6532   -0.9613 H   0  0  0  0  0  0  0  0  0  0  0  0
    2.5230   -2.8474    0.8495 H   0  0  0  0  0  0  0  0  0  0  0  0
    4.0469   -2.4818    0.0562 H   0  0  0  0  0  0  0  0  0  0  0  0
   -3.4988    2.5927   -0.4520 H   0  0  0  0  0  0  0  0  0  0  0  0
  1  7  1  0  0  0  0
  1 13  1  0  0  0  0
  2  8  1  0  0  0  0
  2 14  1  0  0  0  0
  3  9  1  0  0  0  0
  3 15  1  0  0  0  0
  4 12  1  0  0  0  0
  4 27  1  0  0  0  0
  5 12  2  0  0  0  0
  6  7  1  0  0  0  0
  6 10  2  0  0  0  0
  6 12  1  0  0  0  0
  7 11  2  0  0  0  0
  8  9  2  0  0  0  0
  8 10  1  0  0  0  0
  9 11  1  0  0  0  0
 10 16  1  0  0  0  0
 11 17  1  0  0  0  0
 13 18  1  0  0  0  0
 13 19  1  0  0  0  0
 13 20  1  0  0  0  0
 14 21  1  0  0  0  0
 14 22  1  0  0  0  0
 14 23  1  0  0  0  0
 15 24  1  0  0  0  0
 15 25  1  0  0  0  0
 15 26  1  0  0  0  0
M  END
> <PUBCHEM_COMPOUND_CID>
10276

> <PUBCHEM_CONFORMER_RMSD>
0.6

> <PUBCHEM_CONFORMER_DIVERSEORDER>
11
5
9
8
3
1
10
6
7
4
2

> <PUBCHEM_MMFF94_PARTIAL_CHARGES>
18
1 -0.36
10 -0.15
11 -0.15
12 0.63
13 0.28
14 0.28
15 0.28
16 0.15
17 0.15
2 -0.36
27 0.5
3 -0.36
4 -0.65
5 -0.57
6 0.09
7 0.08
8 0.08
9 0.08

> <PUBCHEM_EFFECTIVE_ROTOR_COUNT>
4

> <PUBCHEM_PHARMACOPHORE_FEATURES>
7
1 1 acceptor
1 2 acceptor
1 3 acceptor
1 4 acceptor
1 5 acceptor
3 4 5 12 anion
6 6 7 8 9 10 11 rings

> <PUBCHEM_HEAVY_ATOM_COUNT>
15

> <PUBCHEM_ATOM_DEF_STEREO_COUNT>
0

> <PUBCHEM_ATOM_UDEF_STEREO_COUNT>
0

> <PUBCHEM_BOND_DEF_STEREO_COUNT>
0

> <PUBCHEM_BOND_UDEF_STEREO_COUNT>
0

> <PUBCHEM_ISOTOPIC_ATOM_COUNT>
0

> <PUBCHEM_COMPONENT_COUNT>
1

> <PUBCHEM_CACTVS_TAUTO_COUNT>
1

> <PUBCHEM_CONFORMER_ID>
000028240000000B

> <PUBCHEM_MMFF94_ENERGY>
72.7639

> <PUBCHEM_FEATURE_SELFOVERLAP>
35.588

> <PUBCHEM_SHAPE_FINGERPRINT>
10756046 5 18410007706946632974
10967382 1 18409730659738228224
11206711 2 18048880684593740517
11680986 33 18407763646811792394
12032990 46 18120650503001361234
13140716 1 18409451370989815314
13380535 21 18337381635000051000
14614273 12 18054525620219329509
14648413 74 18411980269461555530
14993402 34 18193839477366352686
15219459 52 18337952393356938700
16945 1 18338521940295769642
193761 8 18337956688298081826
20511035 2 18114759178160729214
20645476 183 18057299864313716214
20671657 1 18411410722475602500
21029758 27 18126272280484712190
21501502 16 18337393733944120198
2334 1 18265617589144741210
23366157 5 18131072598296881568
23402539 116 17901965349914118438
23419403 2 14388931282708181066
23552423 10 18341052921811116730
23559900 14 18189335844313498654
25 1 17621891211262855261
2748010 2 18409730625383823102
3060560 45 18050585228512274717
3071541 158 18198058277907699276
43471831 8 18051981320722527842
45790113 53 18340202007127358825
5255222 1 18263647264508480241
589210 1 18338237068079243990
7364860 26 18407759240286103288
74978 22 18410576205844903950
81228 2 18194692458214320819

> <PUBCHEM_SHAPE_MULTIPOLES>
279.35
4.74
3.27
0.68
0.06
1.2
0.03
-0.86
0.13
0.39
0.53
0.09
-0.11
-0.38

> <PUBCHEM_SHAPE_SELFOVERLAP>
582.266

> <PUBCHEM_SHAPE_VOLUME>
159.8

> <PUBCHEM_COORDINATE_TYPE>
2
5
10

$$$$

