6920
  -OEChem-06261201353D

 14 14  0     0  0  0  0  0  0999 V2000
    0.8748   -1.4130    0.0004 S   0  0  0  0  0  0  0  0  0  0  0  0
   -2.1243   -1.1728   -0.0006 O   0  0  0  0  0  0  0  0  0  0  0  0
   -0.0667    0.0173    0.0001 C   0  0  0  0  0  0  0  0  0  0  0  0
    0.7157    1.1512    0.0000 C   0  0  0  0  0  0  0  0  0  0  0  0
   -1.4898   -0.0878    0.0002 C   0  0  0  0  0  0  0  0  0  0  0  0
    2.1064    0.8415   -0.0003 C   0  0  0  0  0  0  0  0  0  0  0  0
   -2.3502    1.1805    0.0002 C   0  0  0  0  0  0  0  0  0  0  0  0
    2.3341   -0.5171    0.0000 C   0  0  0  0  0  0  0  0  0  0  0  0
    0.3243    2.1606   -0.0001 H   0  0  0  0  0  0  0  0  0  0  0  0
    2.8996    1.5777   -0.0007 H   0  0  0  0  0  0  0  0  0  0  0  0
   -2.1398    1.7687    0.8974 H   0  0  0  0  0  0  0  0  0  0  0  0
   -3.4099    0.9084    0.0013 H   0  0  0  0  0  0  0  0  0  0  0  0
   -2.1411    1.7677   -0.8980 H   0  0  0  0  0  0  0  0  0  0  0  0
    3.2875   -1.0262   -0.0001 H   0  0  0  0  0  0  0  0  0  0  0  0
  1  3  1  0  0  0  0
  1  8  1  0  0  0  0
  2  5  2  0  0  0  0
  3  4  2  0  0  0  0
  3  5  1  0  0  0  0
  4  6  1  0  0  0  0
  4  9  1  0  0  0  0
  5  7  1  0  0  0  0
  6  8  2  0  0  0  0
  6 10  1  0  0  0  0
  7 11  1  0  0  0  0
  7 12  1  0  0  0  0
  7 13  1  0  0  0  0
  8 14  1  0  0  0  0
M  END
> <PUBCHEM_COMPOUND_CID>
6920

> <PUBCHEM_CONFORMER_RMSD>
0.4

> <PUBCHEM_CONFORMER_DIVERSEORDER>
1
3
2
4

> <PUBCHEM_MMFF94_PARTIAL_CHARGES>
11
1 -0.08
10 0.15
14 0.15
2 -0.57
3 -0.05
4 -0.15
5 0.59
6 -0.15
7 0.06
8 -0.11
9 0.15

> <PUBCHEM_EFFECTIVE_ROTOR_COUNT>
1

> <PUBCHEM_PHARMACOPHORE_FEATURES>
2
1 2 acceptor
5 1 3 4 6 8 rings

> <PUBCHEM_HEAVY_ATOM_COUNT>
8

> <PUBCHEM_ATOM_DEF_STEREO_COUNT>
0

> <PUBCHEM_ATOM_UDEF_STEREO_COUNT>
0

> <PUBCHEM_BOND_DEF_STEREO_COUNT>
0

> <PUBCHEM_BOND_UDEF_STEREO_COUNT>
0

> <PUBCHEM_ISOTOPIC_ATOM_COUNT>
0

> <PUBCHEM_COMPONENT_COUNT>
1

> <PUBCHEM_CACTVS_TAUTO_COUNT>
2

> <PUBCHEM_CONFORMER_ID>
00001B0800000001

> <PUBCHEM_MMFF94_ENERGY>
9.9414

> <PUBCHEM_FEATURE_SELFOVERLAP>
10.148

> <PUBCHEM_SHAPE_FINGERPRINT>
12897270 3 18338802208502688807
14325111 11 18410575059273213184
14390081 3 18334298664583532921
18185500 45 18337110167360450026
19973954 147 18411417289195670453
21040471 1 18338798892972513472
23402655 69 18263940993506986621
23552423 10 18343861130163625006
24536 1 18339377304570843053
29004967 10 18411979178428995058
5084963 1 18188485770419268714

> <PUBCHEM_SHAPE_MULTIPOLES>
162.62
3.43
1.5
0.62
0.77
0.15
0
-0.31
0
0.03
0
-0.03
0
0

> <PUBCHEM_SHAPE_SELFOVERLAP>
319.682

> <PUBCHEM_SHAPE_VOLUME>
98.7

> <PUBCHEM_COORDINATE_TYPE>
2
5
10

$$$$

