17395753
  -OEChem-06241222523D

 28 29  0     0  0  0  0  0  0999 V2000
   -0.2529    0.6378    0.0727 S   0  0  0  0  0  0  0  0  0  0  0  0
    3.9166   -0.6276   -0.9848 S   0  0  0  0  0  0  0  0  0  0  0  0
   -0.7322   -3.1754    0.0609 O   0  0  0  0  0  0  0  0  0  0  0  0
   -2.0542   -1.2321   -0.0160 N   0  0  0  0  0  0  0  0  0  0  0  0
   -2.3729    3.5655   -0.0487 N   0  0  0  0  0  0  0  0  0  0  0  0
   -5.3631    0.2171   -0.1929 N   0  0  0  0  0  0  0  0  0  0  0  0
    0.2685   -1.0038    0.1060 C   0  0  0  0  0  0  0  0  0  0  0  0
   -0.8661   -1.9598    0.0491 C   0  0  0  0  0  0  0  0  0  0  0  0
   -1.9163    0.1441   -0.0135 C   0  0  0  0  0  0  0  0  0  0  0  0
    1.5413   -1.3996    0.1744 C   0  0  0  0  0  0  0  0  0  0  0  0
    2.7189   -0.5144    0.2338 C   0  0  0  0  0  0  0  0  0  0  0  0
   -3.3460   -1.8949   -0.0829 C   0  0  0  0  0  0  0  0  0  0  0  0
    3.0235    0.4488    1.1701 C   0  0  0  0  0  0  0  0  0  0  0  0
    4.8473    0.6143   -0.2610 C   0  0  0  0  0  0  0  0  0  0  0  0
    4.2565    1.1028    0.8835 C   0  0  0  0  0  0  0  0  0  0  0  0
   -2.9130    1.0363   -0.0689 C   0  0  0  0  0  0  0  0  0  0  0  0
    6.1223    1.0267   -0.8866 C   0  0  0  0  0  0  0  0  0  0  0  0
   -2.6146    2.4305   -0.0579 C   0  0  0  0  0  0  0  0  0  0  0  0
   -4.2634    0.5839   -0.1373 C   0  0  0  0  0  0  0  0  0  0  0  0
    1.7698   -2.4633    0.1481 H   0  0  0  0  0  0  0  0  0  0  0  0
   -3.9367   -1.6844    0.8122 H   0  0  0  0  0  0  0  0  0  0  0  0
   -3.1878   -2.9801   -0.0722 H   0  0  0  0  0  0  0  0  0  0  0  0
   -3.8390   -1.6886   -1.0363 H   0  0  0  0  0  0  0  0  0  0  0  0
    2.4034    0.6772    2.0281 H   0  0  0  0  0  0  0  0  0  0  0  0
    4.6848    1.8901    1.4909 H   0  0  0  0  0  0  0  0  0  0  0  0
    6.8248    0.1879   -0.9347 H   0  0  0  0  0  0  0  0  0  0  0  0
    5.9577    1.4005   -1.9027 H   0  0  0  0  0  0  0  0  0  0  0  0
    6.6018    1.8273   -0.3133 H   0  0  0  0  0  0  0  0  0  0  0  0
  1  7  1  0  0  0  0
  1  9  1  0  0  0  0
  2 11  1  0  0  0  0
  2 14  1  0  0  0  0
  3  8  2  0  0  0  0
  4  8  1  0  0  0  0
  4  9  1  0  0  0  0
  4 12  1  0  0  0  0
  5 18  3  0  0  0  0
  6 19  3  0  0  0  0
  7  8  1  0  0  0  0
  7 10  2  0  0  0  0
  9 16  2  0  0  0  0
 10 11  1  0  0  0  0
 10 20  1  0  0  0  0
 11 13  2  0  0  0  0
 12 21  1  0  0  0  0
 12 22  1  0  0  0  0
 12 23  1  0  0  0  0
 13 15  1  0  0  0  0
 13 24  1  0  0  0  0
 14 15  2  0  0  0  0
 14 17  1  0  0  0  0
 15 25  1  0  0  0  0
 16 18  1  0  0  0  0
 16 19  1  0  0  0  0
 17 26  1  0  0  0  0
 17 27  1  0  0  0  0
 17 28  1  0  0  0  0
M  END
> <PUBCHEM_COMPOUND_CID>
17395753

> <PUBCHEM_CONFORMER_RMSD>
0.6

> <PUBCHEM_CONFORMER_DIVERSEORDER>
2
3
1

> <PUBCHEM_MMFF94_PARTIAL_CHARGES>
22
1 -0.2
10 -0.11
11 -0.01
12 0.3
13 -0.15
14 -0.14
15 -0.15
16 0.13
17 0.18
18 0.49
19 0.49
2 -0.08
20 0.15
24 0.15
25 0.15
3 -0.57
4 -0.47
5 -0.56
6 -0.56
7 0.12
8 0.62
9 0.21

> <PUBCHEM_EFFECTIVE_ROTOR_COUNT>
1

> <PUBCHEM_PHARMACOPHORE_FEATURES>
5
1 3 acceptor
1 5 acceptor
1 6 acceptor
5 1 4 7 8 9 rings
5 2 11 13 14 15 rings

> <PUBCHEM_HEAVY_ATOM_COUNT>
19

> <PUBCHEM_ATOM_DEF_STEREO_COUNT>
0

> <PUBCHEM_ATOM_UDEF_STEREO_COUNT>
0

> <PUBCHEM_BOND_DEF_STEREO_COUNT>
1

> <PUBCHEM_BOND_UDEF_STEREO_COUNT>
0

> <PUBCHEM_ISOTOPIC_ATOM_COUNT>
0

> <PUBCHEM_COMPONENT_COUNT>
1

> <PUBCHEM_CACTVS_TAUTO_COUNT>
1

> <PUBCHEM_CONFORMER_ID>
0109702900000002

> <PUBCHEM_MMFF94_ENERGY>
44.37

> <PUBCHEM_FEATURE_SELFOVERLAP>
25.371

> <PUBCHEM_SHAPE_FINGERPRINT>
10411042 1 17690841159796509091
10498660 4 18411706490850091172
10608611 8 18334018263801989234
10670039 82 18271515507620048900
10730089 173 18412259515645768484
11595378 159 17917443046043405136
12107183 9 17694795412142484026
12173636 292 18410580616612741471
12236239 1 17632579319104285058
12390115 104 18116140242191243657
12596602 18 17132113515813997752
12916748 109 18411415133221996368
13081056 2 18333733545771736936
13140716 1 18340481146148217417
14251764 75 17830163963492467833
14508225 48 17902243217229265439
14739800 52 18267603338164409456
14790565 3 18336259154515670761
15196674 1 18338800142444318081
18186145 218 18040715921852013914
200 152 15285351830392691330
20510252 161 18334858311828228347
20602899 9 15647052642500693638
20645477 56 18409445869268480058
20645477 70 16878215463939675670
21652331 79 18411140250988676969
22122407 14 15697707185994223396
221357 26 18040155136599474600
23227448 37 18264774268147863516
23366157 5 17840868804373372187
23402539 116 18335709291021138623
23557571 272 18262510386628247294
23559900 14 18333730222073854310
3472631 163 18272364223111395452
3545911 37 18408884036164622870
4028521 119 18261111893810616200
474 4 17561358466247210156
495365 180 17168439198864519202
5104073 3 18198058278139431793
5486654 2 18410295809411178975
7808743 9 18412543228158314328

> <PUBCHEM_SHAPE_MULTIPOLES>
377.9
11.2
2.78
0.84
7.91
0.5
0.03
4.51
-1.94
-2.87
-0.02
0.93
0.08
0.19

> <PUBCHEM_SHAPE_SELFOVERLAP>
783.383

> <PUBCHEM_SHAPE_VOLUME>
217.3

> <PUBCHEM_COORDINATE_TYPE>
2
5
10

$$$$

