5336
  -OEChem-06261200382D

 28 29  0     0  0  0  0  0  0999 V2000
    3.0000    0.6550    0.0000 S   0  0  0  0  0  0  0  0  0  0  0  0
    4.0000    0.6550    0.0000 O   0  0  0  0  0  0  0  0  0  0  0  0
    2.0000    0.6550    0.0000 O   0  0  0  0  0  0  0  0  0  0  0  0
    3.0000    1.6550    0.0000 N   0  0  0  0  0  0  0  0  0  0  0  0
    3.8660    3.1550    0.0000 N   0  0  0  0  0  0  0  0  0  0  0  0
    3.0000   -3.3450    0.0000 N   0  0  0  0  0  0  0  0  0  0  0  0
    3.0000   -0.3450    0.0000 C   0  0  0  0  0  0  0  0  0  0  0  0
    2.1340   -0.8450    0.0000 C   0  0  0  0  0  0  0  0  0  0  0  0
    3.8660   -0.8450    0.0000 C   0  0  0  0  0  0  0  0  0  0  0  0
    3.8660    2.1550    0.0000 C   0  0  0  0  0  0  0  0  0  0  0  0
    3.0000   -2.3450    0.0000 C   0  0  0  0  0  0  0  0  0  0  0  0
    2.1340   -1.8450    0.0000 C   0  0  0  0  0  0  0  0  0  0  0  0
    3.8660   -1.8450    0.0000 C   0  0  0  0  0  0  0  0  0  0  0  0
    4.7320    1.6550    0.0000 C   0  0  0  0  0  0  0  0  0  0  0  0
    5.5981    2.1550    0.0000 C   0  0  0  0  0  0  0  0  0  0  0  0
    5.5981    3.1550    0.0000 C   0  0  0  0  0  0  0  0  0  0  0  0
    4.7320    3.6550    0.0000 C   0  0  0  0  0  0  0  0  0  0  0  0
    2.4631    1.9650    0.0000 H   0  0  0  0  0  0  0  0  0  0  0  0
    1.5970   -0.5350    0.0000 H   0  0  0  0  0  0  0  0  0  0  0  0
    4.4030   -0.5350    0.0000 H   0  0  0  0  0  0  0  0  0  0  0  0
    1.5970   -2.1550    0.0000 H   0  0  0  0  0  0  0  0  0  0  0  0
    4.4030   -2.1550    0.0000 H   0  0  0  0  0  0  0  0  0  0  0  0
    4.7320    1.0350    0.0000 H   0  0  0  0  0  0  0  0  0  0  0  0
    6.1350    1.8450    0.0000 H   0  0  0  0  0  0  0  0  0  0  0  0
    2.4631   -3.6550    0.0000 H   0  0  0  0  0  0  0  0  0  0  0  0
    3.5369   -3.6550    0.0000 H   0  0  0  0  0  0  0  0  0  0  0  0
    6.1350    3.4650    0.0000 H   0  0  0  0  0  0  0  0  0  0  0  0
    4.7320    4.2750    0.0000 H   0  0  0  0  0  0  0  0  0  0  0  0
  1  2  2  0  0  0  0
  1  3  2  0  0  0  0
  1  4  1  0  0  0  0
  1  7  1  0  0  0  0
  4 10  1  0  0  0  0
  4 18  1  0  0  0  0
  5 10  1  0  0  0  0
  5 17  2  0  0  0  0
  6 11  1  0  0  0  0
  6 25  1  0  0  0  0
  6 26  1  0  0  0  0
  7  8  2  0  0  0  0
  7  9  1  0  0  0  0
  8 12  1  0  0  0  0
  8 19  1  0  0  0  0
  9 13  2  0  0  0  0
  9 20  1  0  0  0  0
 10 14  2  0  0  0  0
 11 12  2  0  0  0  0
 11 13  1  0  0  0  0
 12 21  1  0  0  0  0
 13 22  1  0  0  0  0
 14 15  1  0  0  0  0
 14 23  1  0  0  0  0
 15 16  2  0  0  0  0
 15 24  1  0  0  0  0
 16 17  1  0  0  0  0
 16 27  1  0  0  0  0
 17 28  1  0  0  0  0
M  END
> <PUBCHEM_COMPOUND_CID>
5336

> <PUBCHEM_COMPOUND_CANONICALIZED>
1

> <PUBCHEM_CACTVS_COMPLEXITY>
331

> <PUBCHEM_CACTVS_HBOND_ACCEPTOR>
5

> <PUBCHEM_CACTVS_HBOND_DONOR>
2

> <PUBCHEM_CACTVS_ROTATABLE_BOND>
3

> <PUBCHEM_CACTVS_SUBSKEYS>
AAADccBzMABAAAAAAAAAAAAAAAAAAAAAAAA8QAAAAAAAAAABwAAAHAQQQAAACAjBUgQ98ZJIEAKgADZnZHDCgDkxAiAI2Dg4ZJiIIOLAkZGEIAhgkALIyCcQAAAAAAQAAAAAAAAACAAAAAAAAAAAAAAAAA==

> <PUBCHEM_IUPAC_OPENEYE_NAME>
4-amino-N-(2-pyridyl)benzenesulfonamide

> <PUBCHEM_IUPAC_CAS_NAME>
4-amino-N-(2-pyridinyl)benzenesulfonamide

> <PUBCHEM_IUPAC_NAME>
4-amino-N-pyridin-2-ylbenzenesulfonamide

> <PUBCHEM_IUPAC_SYSTEMATIC_NAME>
4-azanyl-N-pyridin-2-yl-benzenesulfonamide

> <PUBCHEM_IUPAC_TRADITIONAL_NAME>
4-amino-N-(2-pyridyl)benzenesulfonamide

> <PUBCHEM_IUPAC_INCHI>
InChI=1S/C11H11N3O2S/c12-9-4-6-10(7-5-9)17(15,16)14-11-3-1-2-8-13-11/h1-8H,12H2,(H,13,14)

> <PUBCHEM_IUPAC_INCHIKEY>
GECHUMIMRBOMGK-UHFFFAOYSA-N

> <PUBCHEM_XLOGP3>
0

> <PUBCHEM_EXACT_MASS>
249.057198

> <PUBCHEM_MOLECULAR_FORMULA>
C11H11N3O2S

> <PUBCHEM_MOLECULAR_WEIGHT>
249.28894

> <PUBCHEM_OPENEYE_CAN_SMILES>
C1=CC=NC(=C1)NS(=O)(=O)C2=CC=C(C=C2)N

> <PUBCHEM_OPENEYE_ISO_SMILES>
C1=CC=NC(=C1)NS(=O)(=O)C2=CC=C(C=C2)N

> <PUBCHEM_CACTVS_TPSA>
93.5

> <PUBCHEM_MONOISOTOPIC_WEIGHT>
249.057198

> <PUBCHEM_TOTAL_CHARGE>
0

> <PUBCHEM_HEAVY_ATOM_COUNT>
17

> <PUBCHEM_ATOM_DEF_STEREO_COUNT>
0

> <PUBCHEM_ATOM_UDEF_STEREO_COUNT>
0

> <PUBCHEM_BOND_DEF_STEREO_COUNT>
0

> <PUBCHEM_BOND_UDEF_STEREO_COUNT>
0

> <PUBCHEM_ISOTOPIC_ATOM_COUNT>
0

> <PUBCHEM_COMPONENT_COUNT>
1

> <PUBCHEM_CACTVS_TAUTO_COUNT>
2

> <PUBCHEM_COORDINATE_TYPE>
1
5
255

> <PUBCHEM_BONDANNOTATIONS>
10  14  8
11  12  8
11  13  8
14  15  8
15  16  8
16  17  8
5  10  8
5  17  8
7  8  8
7  9  8
8  12  8
9  13  8

$$$$

