9341
  -OEChem-06261203383D

 49 50  0     1  0  0  0  0  0999 V2000
    4.4192   -0.3490    2.2206 O   0  0  0  0  0  0  0  0  0  0  0  0
   -0.4451    0.1571    0.1911 O   0  0  0  0  0  0  0  0  0  0  0  0
   -3.4549   -1.3132    1.1525 O   0  0  0  0  0  0  0  0  0  0  0  0
   -4.2960    1.1932    0.5722 O   0  0  0  0  0  0  0  0  0  0  0  0
   -1.7093    0.5474    2.0719 O   0  0  0  0  0  0  0  0  0  0  0  0
    4.1137    0.9410   -0.8076 N   0  0  1  0  0  0  0  0  0  0  0  0
    3.2586    0.7593    0.4069 C   0  0  2  0  0  0  0  0  0  0  0  0
    3.6696   -0.5805    1.0303 C   0  0  1  0  0  0  0  0  0  0  0  0
    5.1577   -0.0885   -0.7633 C   0  0  0  0  0  0  0  0  0  0  0  0
    4.5452   -1.2571   -0.0125 C   0  0  0  0  0  0  0  0  0  0  0  0
    1.8465    0.7829   -0.0979 C   0  0  0  0  0  0  0  0  0  0  0  0
    3.2149    0.8036   -1.9757 C   0  0  0  0  0  0  0  0  0  0  0  0
    1.8281    0.8166   -1.4321 C   0  0  0  0  0  0  0  0  0  0  0  0
    0.6755    0.7906    0.8163 C   0  0  0  0  0  0  0  0  0  0  0  0
   -2.7117   -0.5899    0.1577 C   0  0  1  0  0  0  0  0  0  0  0  0
   -2.1562   -1.6556   -0.8345 C   0  0  0  0  0  0  0  0  0  0  0  0
   -3.6660    0.4520   -0.4799 C   0  0  2  0  0  0  0  0  0  0  0  0
   -1.5863    0.1025    0.9365 C   0  0  0  0  0  0  0  0  0  0  0  0
   -1.2658   -2.7008   -0.1418 C   0  0  0  0  0  0  0  0  0  0  0  0
   -3.2201   -2.3741   -1.6695 C   0  0  0  0  0  0  0  0  0  0  0  0
   -2.9696    1.4564   -1.3951 C   0  0  0  0  0  0  0  0  0  0  0  0
   -5.2477    2.1061    0.0538 C   0  0  0  0  0  0  0  0  0  0  0  0
    3.4296    1.5989    1.0908 H   0  0  0  0  0  0  0  0  0  0  0  0
    2.8193   -1.2165    1.2982 H   0  0  0  0  0  0  0  0  0  0  0  0
    5.5375   -0.3700   -1.7512 H   0  0  0  0  0  0  0  0  0  0  0  0
    6.0084    0.3075   -0.1952 H   0  0  0  0  0  0  0  0  0  0  0  0
    3.9255   -1.8527   -0.6933 H   0  0  0  0  0  0  0  0  0  0  0  0
    5.3142   -1.9029    0.4219 H   0  0  0  0  0  0  0  0  0  0  0  0
    3.3763   -0.1225   -2.5396 H   0  0  0  0  0  0  0  0  0  0  0  0
    3.3697    1.6512   -2.6507 H   0  0  0  0  0  0  0  0  0  0  0  0
    0.9405    0.8406   -2.0473 H   0  0  0  0  0  0  0  0  0  0  0  0
    0.9144    0.2356    1.7305 H   0  0  0  0  0  0  0  0  0  0  0  0
    0.4228    1.8231    1.0839 H   0  0  0  0  0  0  0  0  0  0  0  0
    4.6948   -1.2157    2.5649 H   0  0  0  0  0  0  0  0  0  0  0  0
   -1.5116   -1.1428   -1.5610 H   0  0  0  0  0  0  0  0  0  0  0  0
   -4.4590   -0.0740   -1.0229 H   0  0  0  0  0  0  0  0  0  0  0  0
   -0.7629   -3.3197   -0.8944 H   0  0  0  0  0  0  0  0  0  0  0  0
   -1.8570   -3.3789    0.4830 H   0  0  0  0  0  0  0  0  0  0  0  0
   -0.4822   -2.2661    0.4825 H   0  0  0  0  0  0  0  0  0  0  0  0
   -3.9685   -2.8563   -1.0323 H   0  0  0  0  0  0  0  0  0  0  0  0
   -2.7654   -3.1484   -2.2973 H   0  0  0  0  0  0  0  0  0  0  0  0
   -3.7344   -1.6820   -2.3428 H   0  0  0  0  0  0  0  0  0  0  0  0
   -2.3868    2.1894   -0.8265 H   0  0  0  0  0  0  0  0  0  0  0  0
   -2.3026    0.9544   -2.1022 H   0  0  0  0  0  0  0  0  0  0  0  0
   -3.6892    2.0163   -2.0017 H   0  0  0  0  0  0  0  0  0  0  0  0
   -2.8436   -1.8740    1.6580 H   0  0  0  0  0  0  0  0  0  0  0  0
   -5.8959    2.4132    0.8805 H   0  0  0  0  0  0  0  0  0  0  0  0
   -4.7641    3.0117   -0.3235 H   0  0  0  0  0  0  0  0  0  0  0  0
   -5.8816    1.6514   -0.7145 H   0  0  0  0  0  0  0  0  0  0  0  0
  1  8  1  0  0  0  0
  1 34  1  0  0  0  0
  2 14  1  0  0  0  0
  2 18  1  0  0  0  0
  3 15  1  0  0  0  0
  3 46  1  0  0  0  0
  4 17  1  0  0  0  0
  4 22  1  0  0  0  0
  5 18  2  0  0  0  0
  6  7  1  0  0  0  0
  6  9  1  0  0  0  0
  6 12  1  0  0  0  0
  7  8  1  0  0  0  0
  7 11  1  0  0  0  0
  7 23  1  0  0  0  0
  8 10  1  0  0  0  0
  8 24  1  0  0  0  0
  9 10  1  0  0  0  0
  9 25  1  0  0  0  0
  9 26  1  0  0  0  0
 10 27  1  0  0  0  0
 10 28  1  0  0  0  0
 11 13  2  0  0  0  0
 11 14  1  0  0  0  0
 12 13  1  0  0  0  0
 12 29  1  0  0  0  0
 12 30  1  0  0  0  0
 13 31  1  0  0  0  0
 14 32  1  0  0  0  0
 14 33  1  0  0  0  0
 15 16  1  0  0  0  0
 15 17  1  0  0  0  0
 15 18  1  0  0  0  0
 16 19  1  0  0  0  0
 16 20  1  0  0  0  0
 16 35  1  0  0  0  0
 17 21  1  0  0  0  0
 17 36  1  0  0  0  0
 19 37  1  0  0  0  0
 19 38  1  0  0  0  0
 19 39  1  0  0  0  0
 20 40  1  0  0  0  0
 20 41  1  0  0  0  0
 20 42  1  0  0  0  0
 21 43  1  0  0  0  0
 21 44  1  0  0  0  0
 21 45  1  0  0  0  0
 22 47  1  0  0  0  0
 22 48  1  0  0  0  0
 22 49  1  0  0  0  0
M  END
> <PUBCHEM_COMPOUND_CID>
9341

> <PUBCHEM_CONFORMER_RMSD>
1.2

> <PUBCHEM_CONFORMER_DIVERSEORDER>
1
86
63
76
137
71
101
23
161
152
128
6
145
195
113
123
190
180
66
170
49
102
115
97
96
119
192
178
112
139
9
165
79
59
12
124
157
175
185
172
189
60
149
67
90
44
191
181
146
37
108
118
132
4
176
36
121
57
81
22
196
91
80
116
179
143
138
19
3
155
106
65
168
174
89
142
58
105
187
85
104
42
14
61
2
94
72
117
169
164
144
125
171
194
148
131
183
48
99
151
150
24
82
31
62
21
173
130
78
28
88
95
103
74
84
197
110
27
163
13
136
135
98
43
18
45
25
46
133
193
56
77
114
166
167
16
51
122
141
140
184
8
158
53
73
188
26
10
41
134
92
50
160
34
29
32
38
39
120
40
75
156
154
100
87
107
126
11
70
69
182
17
33
68
30
159
147
52
35
7
83
47
109
127
177
162
153
54
20
93
64
15
55
5
111
186
129

> <PUBCHEM_MMFF94_PARTIAL_CHARGES>
20
1 -0.68
11 -0.28
12 0.41
13 -0.29
14 0.42
15 0.34
17 0.28
18 0.66
2 -0.43
22 0.28
3 -0.68
31 0.15
34 0.4
4 -0.56
46 0.4
5 -0.57
6 -0.81
7 0.41
8 0.28
9 0.27

> <PUBCHEM_EFFECTIVE_ROTOR_COUNT>
7.8

> <PUBCHEM_PHARMACOPHORE_FEATURES>
10
1 1 acceptor
1 1 donor
1 3 acceptor
1 3 donor
1 4 acceptor
1 5 acceptor
1 6 cation
3 16 19 20 hydrophobe
5 6 7 11 12 13 rings
5 6 7 8 9 10 rings

> <PUBCHEM_HEAVY_ATOM_COUNT>
22

> <PUBCHEM_ATOM_DEF_STEREO_COUNT>
0

> <PUBCHEM_ATOM_UDEF_STEREO_COUNT>
4

> <PUBCHEM_BOND_DEF_STEREO_COUNT>
0

> <PUBCHEM_BOND_UDEF_STEREO_COUNT>
0

> <PUBCHEM_ISOTOPIC_ATOM_COUNT>
0

> <PUBCHEM_COMPONENT_COUNT>
1

> <PUBCHEM_CACTVS_TAUTO_COUNT>
1

> <PUBCHEM_CONFORMER_ID>
0000247D00000001

> <PUBCHEM_MMFF94_ENERGY>
54.6702

> <PUBCHEM_FEATURE_SELFOVERLAP>
51.264

> <PUBCHEM_SHAPE_FINGERPRINT>
10062212 137 18272095984675400827
10366900 7 10015574017496161645
11578080 2 18337964372079730576
11796584 16 18186797011413123598
12236239 1 18272084994402450032
12346177 29 18040719130161123887
12363563 72 17096081385863254442
12592029 89 18200874092752861987
12633257 1 18410293618461439517
12670545 47 16008744685128650444
12714826 92 18262795147513285291
13167823 11 18272367542804596982
13533116 47 17459469034040491254
14004511 7 18272653454361250577
14251751 93 17846228811883855645
15375358 24 16805041826143066957
15788980 27 18409728452478466022
16752209 62 18262244313219922991
17349148 13 17530965786874578308
17818456 19 18268995469454699880
17834072 14 16805329872456598768
19433438 15 18343863303353740988
20600515 1 17969810564286912753
20645477 70 17275105037998994682
22854114 59 14056998321856175672
23402539 116 17822015336757683789
23559900 14 17603576431514916996
2838139 119 17702677686828383933
300161 21 18411421696301562592
44062 13 18334295349069331687
5104073 3 17917711279673086800
5281201 14 14333413363341456550
5283173 99 16153986992771824769
543358 83 17275099561847139408
559249 180 18335985345511913518
573450 72 18410018710331156423
633830 44 17632292363490738082
6913067 236 14924241476675967216
81228 2 17096627950443115584

> <PUBCHEM_SHAPE_MULTIPOLES>
418.42
11.21
2.12
1.73
3.87
1.23
-0.09
-1.86
0.29
-2.83
0.57
0.73
-0.07
-0.97

> <PUBCHEM_SHAPE_SELFOVERLAP>
855.969

> <PUBCHEM_SHAPE_VOLUME>
244.5

> <PUBCHEM_COORDINATE_TYPE>
2
5
10

$$$$

