17396075
  -OEChem-06241222543D

 56 59  0     1  0  0  0  0  0999 V2000
    4.2217   -1.1257    0.6921 S   0  0  0  0  0  0  0  0  0  0  0  0
    1.4060   -2.6694    1.8361 O   0  0  0  0  0  0  0  0  0  0  0  0
    3.1486    1.1183   -0.5116 N   0  0  0  0  0  0  0  0  0  0  0  0
   -4.3017   -0.1353   -0.1151 N   0  0  0  0  0  0  0  0  0  0  0  0
    2.9304    1.6654   -1.7155 N   0  0  0  0  0  0  0  0  0  0  0  0
    3.9346   -0.3125   -1.9392 N   0  0  0  0  0  0  0  0  0  0  0  0
    3.4134    0.7861   -2.5847 N   0  0  0  0  0  0  0  0  0  0  0  0
    1.0553   -1.7065   -0.2801 N   0  0  0  0  0  0  0  0  0  0  0  0
    2.7385    1.8186    0.7027 C   0  0  0  0  0  0  0  0  0  0  0  0
    3.4270    3.1824    0.8809 C   0  0  0  0  0  0  0  0  0  0  0  0
    1.2238    2.0865    0.8038 C   0  0  0  0  0  0  0  0  0  0  0  0
    2.3657    4.0668    1.5187 C   0  0  0  0  0  0  0  0  0  0  0  0
    1.0809    3.6035    0.8538 C   0  0  0  0  0  0  0  0  0  0  0  0
   -7.0256    0.8146   -0.0334 C   0  0  0  0  0  0  0  0  0  0  0  0
   -6.5756   -0.2206   -1.0568 C   0  0  0  0  0  0  0  0  0  0  0  0
   -6.1862    0.7009    1.2334 C   0  0  0  0  0  0  0  0  0  0  0  0
   -5.0821   -0.1034   -1.3574 C   0  0  0  0  0  0  0  0  0  0  0  0
   -4.6949    0.8229    0.9279 C   0  0  0  0  0  0  0  0  0  0  0  0
    3.7606   -0.0857   -0.6575 C   0  0  0  0  0  0  0  0  0  0  0  0
   -2.9586   -0.5289   -0.1559 C   0  0  0  0  0  0  0  0  0  0  0  0
   -2.3823   -1.1594    0.9467 C   0  0  0  0  0  0  0  0  0  0  0  0
   -2.1969   -0.2905   -1.2999 C   0  0  0  0  0  0  0  0  0  0  0  0
    3.2430   -2.6082    0.2818 C   0  0  2  0  0  0  0  0  0  0  0  0
   -0.2828   -1.3136   -0.2385 C   0  0  0  0  0  0  0  0  0  0  0  0
   -1.0445   -1.5519    0.9055 C   0  0  0  0  0  0  0  0  0  0  0  0
   -0.8590   -0.6828   -1.3413 C   0  0  0  0  0  0  0  0  0  0  0  0
    1.8047   -2.3480    0.7201 C   0  0  0  0  0  0  0  0  0  0  0  0
    3.8357   -3.8236    0.9836 C   0  0  0  0  0  0  0  0  0  0  0  0
    3.0140    1.1860    1.5529 H   0  0  0  0  0  0  0  0  0  0  0  0
    3.7362    3.6130   -0.0789 H   0  0  0  0  0  0  0  0  0  0  0  0
    4.3225    3.1071    1.5065 H   0  0  0  0  0  0  0  0  0  0  0  0
    0.8386    1.6513    1.7342 H   0  0  0  0  0  0  0  0  0  0  0  0
    0.6448    1.6622   -0.0213 H   0  0  0  0  0  0  0  0  0  0  0  0
    2.5594    5.1307    1.3559 H   0  0  0  0  0  0  0  0  0  0  0  0
    2.3212    3.8864    2.5992 H   0  0  0  0  0  0  0  0  0  0  0  0
    0.1890    3.9176    1.4034 H   0  0  0  0  0  0  0  0  0  0  0  0
    1.0155    4.0075   -0.1635 H   0  0  0  0  0  0  0  0  0  0  0  0
   -8.0842    0.6657    0.2066 H   0  0  0  0  0  0  0  0  0  0  0  0
   -6.9269    1.8219   -0.4556 H   0  0  0  0  0  0  0  0  0  0  0  0
   -7.1495   -0.1030   -1.9828 H   0  0  0  0  0  0  0  0  0  0  0  0
   -6.7907   -1.2252   -0.6711 H   0  0  0  0  0  0  0  0  0  0  0  0
   -6.3822   -0.2671    1.7117 H   0  0  0  0  0  0  0  0  0  0  0  0
   -6.4825    1.4782    1.9465 H   0  0  0  0  0  0  0  0  0  0  0  0
   -4.8874    0.8322   -1.8966 H   0  0  0  0  0  0  0  0  0  0  0  0
   -4.8063   -0.9375   -2.0146 H   0  0  0  0  0  0  0  0  0  0  0  0
   -4.1428    0.6640    1.8612 H   0  0  0  0  0  0  0  0  0  0  0  0
   -4.4630    1.8402    0.5876 H   0  0  0  0  0  0  0  0  0  0  0  0
   -2.9642   -1.3670    1.8413 H   0  0  0  0  0  0  0  0  0  0  0  0
   -2.6078    0.2125   -2.1707 H   0  0  0  0  0  0  0  0  0  0  0  0
    3.2764   -2.7924   -0.7980 H   0  0  0  0  0  0  0  0  0  0  0  0
   -0.6721   -2.0375    1.7963 H   0  0  0  0  0  0  0  0  0  0  0  0
   -0.2750   -0.4864   -2.2370 H   0  0  0  0  0  0  0  0  0  0  0  0
    1.5320   -1.5088   -1.1568 H   0  0  0  0  0  0  0  0  0  0  0  0
    4.8564   -4.0234    0.6391 H   0  0  0  0  0  0  0  0  0  0  0  0
    3.2344   -4.7149    0.7707 H   0  0  0  0  0  0  0  0  0  0  0  0
    3.8574   -3.7043    2.0731 H   0  0  0  0  0  0  0  0  0  0  0  0
  1 19  1  0  0  0  0
  1 23  1  0  0  0  0
  2 27  2  0  0  0  0
  3  5  1  0  0  0  0
  3  9  1  0  0  0  0
  3 19  1  0  0  0  0
  4 17  1  0  0  0  0
  4 18  1  0  0  0  0
  4 20  1  0  0  0  0
  5  7  2  0  0  0  0
  6  7  1  0  0  0  0
  6 19  2  0  0  0  0
  8 24  1  0  0  0  0
  8 27  1  0  0  0  0
  8 53  1  0  0  0  0
  9 10  1  0  0  0  0
  9 11  1  0  0  0  0
  9 29  1  0  0  0  0
 10 12  1  0  0  0  0
 10 30  1  0  0  0  0
 10 31  1  0  0  0  0
 11 13  1  0  0  0  0
 11 32  1  0  0  0  0
 11 33  1  0  0  0  0
 12 13  1  0  0  0  0
 12 34  1  0  0  0  0
 12 35  1  0  0  0  0
 13 36  1  0  0  0  0
 13 37  1  0  0  0  0
 14 15  1  0  0  0  0
 14 16  1  0  0  0  0
 14 38  1  0  0  0  0
 14 39  1  0  0  0  0
 15 17  1  0  0  0  0
 15 40  1  0  0  0  0
 15 41  1  0  0  0  0
 16 18  1  0  0  0  0
 16 42  1  0  0  0  0
 16 43  1  0  0  0  0
 17 44  1  0  0  0  0
 17 45  1  0  0  0  0
 18 46  1  0  0  0  0
 18 47  1  0  0  0  0
 20 21  2  0  0  0  0
 20 22  1  0  0  0  0
 21 25  1  0  0  0  0
 21 48  1  0  0  0  0
 22 26  2  0  0  0  0
 22 49  1  0  0  0  0
 23 27  1  0  0  0  0
 23 28  1  0  0  0  0
 23 50  1  0  0  0  0
 24 25  2  0  0  0  0
 24 26  1  0  0  0  0
 25 51  1  0  0  0  0
 26 52  1  0  0  0  0
 28 54  1  0  0  0  0
 28 55  1  0  0  0  0
 28 56  1  0  0  0  0
M  END
> <PUBCHEM_COMPOUND_CID>
17396075

> <PUBCHEM_CONFORMER_RMSD>
1.2

> <PUBCHEM_CONFORMER_DIVERSEORDER>
1
13
8
10
53
28
21
11
36
33
24
22
32
16
44
49
4
34
43
30
23
26
12
14
20
38
31
54
7
2
25
42
35
37
41
5
3
6
17
51
19
15
39
29
48
27
50
9
45
46
40
18
52
47

> <PUBCHEM_MMFF94_PARTIAL_CHARGES>
24
1 -0.29
17 0.37
18 0.37
19 0.24
2 -0.57
20 0.1
21 -0.15
22 -0.15
23 0.29
24 0.12
25 -0.15
26 -0.15
27 0.57
3 0.31
4 -0.84
48 0.15
49 0.15
5 -0.42
51 0.15
52 0.15
53 0.37
6 -0.34
8 -0.55
9 0.26

> <PUBCHEM_EFFECTIVE_ROTOR_COUNT>
9.2

> <PUBCHEM_PHARMACOPHORE_FEATURES>
9
1 2 acceptor
1 28 hydrophobe
1 4 cation
1 8 donor
3 3 6 19 cation
5 3 5 6 7 19 rings
5 9 10 11 12 13 rings
6 20 21 22 24 25 26 rings
6 4 14 15 16 17 18 rings

> <PUBCHEM_HEAVY_ATOM_COUNT>
28

> <PUBCHEM_ATOM_DEF_STEREO_COUNT>
0

> <PUBCHEM_ATOM_UDEF_STEREO_COUNT>
1

> <PUBCHEM_BOND_DEF_STEREO_COUNT>
0

> <PUBCHEM_BOND_UDEF_STEREO_COUNT>
0

> <PUBCHEM_ISOTOPIC_ATOM_COUNT>
0

> <PUBCHEM_COMPONENT_COUNT>
1

> <PUBCHEM_CACTVS_TAUTO_COUNT>
2

> <PUBCHEM_CONFORMER_ID>
0109716B00000001

> <PUBCHEM_MMFF94_ENERGY>
69.5095

> <PUBCHEM_FEATURE_SELFOVERLAP>
45.669

> <PUBCHEM_SHAPE_FINGERPRINT>
10165383 225 18059846239043904814
10675989 125 18335419011261926720
11456790 92 18129381673682766321
12166972 35 18129381677735366922
13150687 139 8429734172741252178
13533116 47 18342739645884167247
13583140 156 18338514132330536375
13878862 14 18200052723597272989
14464042 87 18188489193539924008
15183329 4 17894345584447534069
15274700 259 17842003471506614741
17980427 26 18191042109600996972
19752476 56 18041842796848710608
21033648 144 18338811017965903541
21033648 29 17632028506987029117
21344244 78 18194703672163337506
21475661 188 18263643957114656196
22122407 14 18263351634063400097
23559900 14 17846779628555009639
345986 75 18053675938629198066
376196 1 17318462990313230392
495365 180 18342183219669609446
513532 50 17821729434038605486
5252454 2 18200309914211791366
6086070 43 18335412439850628491

> <PUBCHEM_SHAPE_MULTIPOLES>
544.32
13.53
4.19
1.76
26.49
2.42
0.76
0.96
1.1
-7.75
-2.61
-0.91
0.12
-0.86

> <PUBCHEM_SHAPE_SELFOVERLAP>
1130.175

> <PUBCHEM_SHAPE_VOLUME>
312

> <PUBCHEM_COORDINATE_TYPE>
2
5
10

$$$$

