10135
  -OEChem-06261204203D

 75 78  0     1  0  0  0  0  0999 V2000
    5.1832    1.9296   -1.8246 O   0  0  0  0  0  0  0  0  0  0  0  0
   -0.9255   -1.1206   -0.3581 C   0  0  1  0  0  0  0  0  0  0  0  0
    0.3407   -1.8996   -0.7813 C   0  0  1  0  0  0  0  0  0  0  0  0
    1.6616   -1.1117   -0.6234 C   0  0  1  0  0  0  0  0  0  0  0  0
    1.8150   -0.4191    0.7495 C   0  0  1  0  0  0  0  0  0  0  0  0
   -1.9782   -2.2602   -0.3315 C   0  0  1  0  0  0  0  0  0  0  0  0
   -0.7226   -0.4598    1.0242 C   0  0  0  0  0  0  0  0  0  0  0  0
    3.1530    0.4283    0.8570 C   0  0  1  0  0  0  0  0  0  0  0  0
    0.2486   -3.2127    0.0183 C   0  0  0  0  0  0  0  0  0  0  0  0
    0.5467    0.3866    1.0987 C   0  0  0  0  0  0  0  0  0  0  0  0
   -1.2390   -3.4545    0.2823 C   0  0  0  0  0  0  0  0  0  0  0  0
    2.8759   -2.0125   -0.9019 C   0  0  0  0  0  0  0  0  0  0  0  0
   -1.3101   -0.0619   -1.4061 C   0  0  0  0  0  0  0  0  0  0  0  0
    4.3110   -0.2107    0.0813 C   0  0  0  0  0  0  0  0  0  0  0  0
   -3.2864   -1.9530    0.3863 C   0  0  2  0  0  0  0  0  0  0  0  0
    2.9906    1.8692    0.2945 C   0  0  0  0  0  0  0  0  0  0  0  0
    4.1737   -1.3121   -0.6751 C   0  0  0  0  0  0  0  0  0  0  0  0
    3.5157    0.4981    2.3641 C   0  0  0  0  0  0  0  0  0  0  0  0
    5.6301    0.5317    0.0989 C   0  0  0  0  0  0  0  0  0  0  0  0
    4.2925    2.6876    0.2731 C   0  0  0  0  0  0  0  0  0  0  0  0
    5.4427    1.9592   -0.4208 C   0  0  2  0  0  0  0  0  0  0  0  0
   -4.1935   -3.1849    0.4128 C   0  0  0  0  0  0  0  0  0  0  0  0
   -3.9955   -0.8034   -0.2864 C   0  0  0  0  0  0  0  0  0  0  0  0
   -4.2816    0.3568    0.3244 C   0  0  0  0  0  0  0  0  0  0  0  0
   -4.9815    1.5145   -0.3533 C   0  0  2  0  0  0  0  0  0  0  0  0
   -4.5245    2.8773    0.2410 C   0  0  0  0  0  0  0  0  0  0  0  0
   -6.4938    1.2951   -0.2285 C   0  0  0  0  0  0  0  0  0  0  0  0
   -5.2401    4.0645   -0.4148 C   0  0  0  0  0  0  0  0  0  0  0  0
   -3.0085    3.0781    0.0994 C   0  0  0  0  0  0  0  0  0  0  0  0
    0.2470   -2.1687   -1.8447 H   0  0  0  0  0  0  0  0  0  0  0  0
    1.6566   -0.3229   -1.3891 H   0  0  0  0  0  0  0  0  0  0  0  0
    1.8874   -1.2240    1.4961 H   0  0  0  0  0  0  0  0  0  0  0  0
   -2.2086   -2.5399   -1.3720 H   0  0  0  0  0  0  0  0  0  0  0  0
   -0.6680   -1.2198    1.8134 H   0  0  0  0  0  0  0  0  0  0  0  0
   -1.5734    0.1773    1.2825 H   0  0  0  0  0  0  0  0  0  0  0  0
    0.7807   -3.1531    0.9736 H   0  0  0  0  0  0  0  0  0  0  0  0
    0.6857   -4.0454   -0.5436 H   0  0  0  0  0  0  0  0  0  0  0  0
    0.4302    1.2368    0.4181 H   0  0  0  0  0  0  0  0  0  0  0  0
    0.6274    0.8005    2.1096 H   0  0  0  0  0  0  0  0  0  0  0  0
   -1.5671   -4.3982   -0.1673 H   0  0  0  0  0  0  0  0  0  0  0  0
   -1.4060   -3.5313    1.3632 H   0  0  0  0  0  0  0  0  0  0  0  0
    2.8337   -2.3479   -1.9455 H   0  0  0  0  0  0  0  0  0  0  0  0
    2.8686   -2.9116   -0.2763 H   0  0  0  0  0  0  0  0  0  0  0  0
   -2.0363    0.6611   -1.0443 H   0  0  0  0  0  0  0  0  0  0  0  0
   -0.4372    0.5284   -1.7058 H   0  0  0  0  0  0  0  0  0  0  0  0
   -1.7011   -0.5191   -2.3218 H   0  0  0  0  0  0  0  0  0  0  0  0
   -3.0839   -1.6942    1.4334 H   0  0  0  0  0  0  0  0  0  0  0  0
    2.2636    2.4338    0.8905 H   0  0  0  0  0  0  0  0  0  0  0  0
    2.5919    1.8239   -0.7275 H   0  0  0  0  0  0  0  0  0  0  0  0
    5.0328   -1.7143   -1.2062 H   0  0  0  0  0  0  0  0  0  0  0  0
    3.6781   -0.5053    2.7759 H   0  0  0  0  0  0  0  0  0  0  0  0
    4.4255    1.0722    2.5620 H   0  0  0  0  0  0  0  0  0  0  0  0
    2.7172    0.9709    2.9453 H   0  0  0  0  0  0  0  0  0  0  0  0
    6.0335    0.5472    1.1171 H   0  0  0  0  0  0  0  0  0  0  0  0
    6.3732    0.0154   -0.5218 H   0  0  0  0  0  0  0  0  0  0  0  0
    4.0928    3.6364   -0.2401 H   0  0  0  0  0  0  0  0  0  0  0  0
    4.5849    2.9380    1.2991 H   0  0  0  0  0  0  0  0  0  0  0  0
    6.3681    2.5287   -0.2793 H   0  0  0  0  0  0  0  0  0  0  0  0
   -4.3765   -3.5719   -0.5962 H   0  0  0  0  0  0  0  0  0  0  0  0
   -5.1666   -2.9414    0.8554 H   0  0  0  0  0  0  0  0  0  0  0  0
   -3.7641   -3.9929    1.0133 H   0  0  0  0  0  0  0  0  0  0  0  0
   -4.2719   -0.9335   -1.3306 H   0  0  0  0  0  0  0  0  0  0  0  0
   -4.0356    0.4729    1.3775 H   0  0  0  0  0  0  0  0  0  0  0  0
    5.9364    1.4881   -2.2528 H   0  0  0  0  0  0  0  0  0  0  0  0
   -4.7278    1.5031   -1.4224 H   0  0  0  0  0  0  0  0  0  0  0  0
   -4.7637    2.8990    1.3130 H   0  0  0  0  0  0  0  0  0  0  0  0
   -7.0501    2.0122   -0.8400 H   0  0  0  0  0  0  0  0  0  0  0  0
   -6.8281    1.4011    0.8097 H   0  0  0  0  0  0  0  0  0  0  0  0
   -6.7832    0.2957   -0.5738 H   0  0  0  0  0  0  0  0  0  0  0  0
   -4.8491    5.0146   -0.0341 H   0  0  0  0  0  0  0  0  0  0  0  0
   -5.1068    4.0557   -1.5018 H   0  0  0  0  0  0  0  0  0  0  0  0
   -6.3126    4.0534   -0.1992 H   0  0  0  0  0  0  0  0  0  0  0  0
   -2.6970    3.0166   -0.9486 H   0  0  0  0  0  0  0  0  0  0  0  0
   -2.7122    4.0626    0.4781 H   0  0  0  0  0  0  0  0  0  0  0  0
   -2.4465    2.3380    0.6747 H   0  0  0  0  0  0  0  0  0  0  0  0
  1 21  1  0  0  0  0
  1 64  1  0  0  0  0
  2  3  1  0  0  0  0
  2  6  1  0  0  0  0
  2  7  1  0  0  0  0
  2 13  1  0  0  0  0
  3  4  1  0  0  0  0
  3  9  1  0  0  0  0
  3 30  1  0  0  0  0
  4  5  1  0  0  0  0
  4 12  1  0  0  0  0
  4 31  1  0  0  0  0
  5  8  1  0  0  0  0
  5 10  1  0  0  0  0
  5 32  1  0  0  0  0
  6 11  1  0  0  0  0
  6 15  1  0  0  0  0
  6 33  1  0  0  0  0
  7 10  1  0  0  0  0
  7 34  1  0  0  0  0
  7 35  1  0  0  0  0
  8 14  1  0  0  0  0
  8 16  1  0  0  0  0
  8 18  1  0  0  0  0
  9 11  1  0  0  0  0
  9 36  1  0  0  0  0
  9 37  1  0  0  0  0
 10 38  1  0  0  0  0
 10 39  1  0  0  0  0
 11 40  1  0  0  0  0
 11 41  1  0  0  0  0
 12 17  1  0  0  0  0
 12 42  1  0  0  0  0
 12 43  1  0  0  0  0
 13 44  1  0  0  0  0
 13 45  1  0  0  0  0
 13 46  1  0  0  0  0
 14 17  2  0  0  0  0
 14 19  1  0  0  0  0
 15 22  1  0  0  0  0
 15 23  1  0  0  0  0
 15 47  1  0  0  0  0
 16 20  1  0  0  0  0
 16 48  1  0  0  0  0
 16 49  1  0  0  0  0
 17 50  1  0  0  0  0
 18 51  1  0  0  0  0
 18 52  1  0  0  0  0
 18 53  1  0  0  0  0
 19 21  1  0  0  0  0
 19 54  1  0  0  0  0
 19 55  1  0  0  0  0
 20 21  1  0  0  0  0
 20 56  1  0  0  0  0
 20 57  1  0  0  0  0
 21 58  1  0  0  0  0
 22 59  1  0  0  0  0
 22 60  1  0  0  0  0
 22 61  1  0  0  0  0
 23 24  2  0  0  0  0
 23 62  1  0  0  0  0
 24 25  1  0  0  0  0
 24 63  1  0  0  0  0
 25 26  1  0  0  0  0
 25 27  1  0  0  0  0
 25 65  1  0  0  0  0
 26 28  1  0  0  0  0
 26 29  1  0  0  0  0
 26 66  1  0  0  0  0
 27 67  1  0  0  0  0
 27 68  1  0  0  0  0
 27 69  1  0  0  0  0
 28 70  1  0  0  0  0
 28 71  1  0  0  0  0
 28 72  1  0  0  0  0
 29 73  1  0  0  0  0
 29 74  1  0  0  0  0
 29 75  1  0  0  0  0
M  END
> <PUBCHEM_COMPOUND_CID>
10135

> <PUBCHEM_CONFORMER_RMSD>
0.8

> <PUBCHEM_CONFORMER_DIVERSEORDER>
1
7
10
9
8
5
2
4
3
6

> <PUBCHEM_MMFF94_PARTIAL_CHARGES>
15
1 -0.68
12 0.14
14 -0.28
15 0.14
17 -0.29
19 0.14
21 0.28
23 -0.29
24 -0.29
25 0.14
50 0.15
62 0.15
63 0.15
64 0.4
8 0.14

> <PUBCHEM_EFFECTIVE_ROTOR_COUNT>
6

> <PUBCHEM_PHARMACOPHORE_FEATURES>
9
1 1 acceptor
1 1 donor
1 22 hydrophobe
1 27 hydrophobe
3 26 28 29 hydrophobe
5 2 3 6 9 11 rings
6 2 3 4 5 7 10 rings
6 4 5 8 12 14 17 rings
6 8 14 16 19 20 21 rings

> <PUBCHEM_HEAVY_ATOM_COUNT>
29

> <PUBCHEM_ATOM_DEF_STEREO_COUNT>
1

> <PUBCHEM_ATOM_UDEF_STEREO_COUNT>
0

> <PUBCHEM_BOND_DEF_STEREO_COUNT>
0

> <PUBCHEM_BOND_UDEF_STEREO_COUNT>
1

> <PUBCHEM_ISOTOPIC_ATOM_COUNT>
0

> <PUBCHEM_COMPONENT_COUNT>
1

> <PUBCHEM_CACTVS_TAUTO_COUNT>
1

> <PUBCHEM_CONFORMER_ID>
0000279700000001

> <PUBCHEM_MMFF94_ENERGY>
82.7714

> <PUBCHEM_FEATURE_SELFOVERLAP>
45.877

> <PUBCHEM_SHAPE_FINGERPRINT>
10670039 82 18337952281830597380
11513181 2 18187081749989947455
11578080 2 18338220652703670071
11595378 159 17060063695571955909
12107183 9 18198919178390719850
12390115 104 18336254666057873275
12403259 415 17968660402088390707
12422481 6 17203045295976265781
12596602 18 17418093196290883337
12788726 201 18198911296793064907
13944108 23 17469601175799349201
13965767 371 17844813774889279695
14251764 75 17973998755245335953
14347329 18 18408889533369672257
14790565 3 18412261714162608844
14848178 96 18263365952930209953
15001296 14 18270967821458722549
15163728 17 18411693309753494463
15238133 3 18337684044470256706
15320467 1 17401487048638803169
1601671 61 18409730621600786068
16067690 210 17988931080321423809
17349148 13 5833720105500476710
17844677 252 18340763737230894874
18608769 82 18409445874523751283
19611394 137 18058155139164337411
20715895 44 18264773327486663584
21033648 144 17752487551587127400
21033648 29 18188500076997731522
21279426 13 18187919625464392686
21360443 126 18413394242058310751
21859007 373 18188503393467306360
23559900 14 18261391200082745102
23569914 152 16810649524808668340
2838139 119 18335147500529363645
3493558 16 18411410687826077741
376196 1 18337391664324440663
4058900 60 18271799138396106554
4144715 1 18343011173590442290
508706 21 18408891737225607395
5104073 3 18130795529471859754
5283173 99 18409446968648148338
550186 7 18261104145842537263
633830 44 18336274517186076519
6700243 42 17540776574442252575
7808743 9 18411984667634719097
9849439 229 18269834388869741829

> <PUBCHEM_SHAPE_MULTIPOLES>
590.94
13.71
4.47
1.22
2.57
0.67
-0.22
11.88
1.37
4.95
0.32
-1.23
0.15
0.62

> <PUBCHEM_SHAPE_SELFOVERLAP>
1228.728

> <PUBCHEM_SHAPE_VOLUME>
335.8

> <PUBCHEM_COORDINATE_TYPE>
2
5
10

$$$$

