3660
  -OEChem-06251223343D

 29 31  0     1  0  0  0  0  0999 V2000
   -2.4546    3.8649    0.0730 Br  0  0  0  0  0  0  0  0  0  0  0  0
   -3.7559   -1.3615   -1.2281 O   0  0  0  0  0  0  0  0  0  0  0  0
    2.3661    1.1025    1.9808 O   0  0  0  0  0  0  0  0  0  0  0  0
   -2.4012   -2.3010    0.3929 N   0  0  0  0  0  0  0  0  0  0  0  0
   -2.8524    1.1030   -0.0339 N   0  0  0  0  0  0  0  0  0  0  0  0
    2.2801   -0.6843   -0.9062 N   0  0  0  0  0  0  0  0  0  0  0  0
    3.8452    0.5014    0.2613 N   0  0  0  0  0  0  0  0  0  0  0  0
    4.5263   -0.5254   -1.7609 N   0  0  0  0  0  0  0  0  0  0  0  0
    0.2312   -0.4151    0.5499 C   0  0  1  0  0  0  0  0  0  0  0  0
   -0.6794    0.1817   -0.5267 C   0  0  1  0  0  0  0  0  0  0  0  0
   -0.0011   -1.9074    0.8168 C   0  0  0  0  0  0  0  0  0  0  0  0
   -2.1625    0.0314   -0.2791 C   0  0  0  0  0  0  0  0  0  0  0  0
   -1.3738   -2.1969    1.4085 C   0  0  0  0  0  0  0  0  0  0  0  0
    1.6692   -0.2322    0.1383 C   0  0  0  0  0  0  0  0  0  0  0  0
   -0.7057    1.6864   -0.4579 C   0  0  0  0  0  0  0  0  0  0  0  0
   -2.8460   -1.2862   -0.4130 C   0  0  0  0  0  0  0  0  0  0  0  0
   -1.9342    2.1098   -0.1477 C   0  0  0  0  0  0  0  0  0  0  0  0
    2.6530    0.5525    0.9359 C   0  0  0  0  0  0  0  0  0  0  0  0
    3.5957   -0.2237   -0.8042 C   0  0  0  0  0  0  0  0  0  0  0  0
    0.0787    0.1176    1.4982 H   0  0  0  0  0  0  0  0  0  0  0  0
   -0.4362   -0.1589   -1.5386 H   0  0  0  0  0  0  0  0  0  0  0  0
    0.7568   -2.2478    1.5352 H   0  0  0  0  0  0  0  0  0  0  0  0
    0.1561   -2.4939   -0.0977 H   0  0  0  0  0  0  0  0  0  0  0  0
   -1.3536   -3.1640    1.9225 H   0  0  0  0  0  0  0  0  0  0  0  0
   -1.6726   -1.4352    2.1367 H   0  0  0  0  0  0  0  0  0  0  0  0
    0.1571    2.3177   -0.6159 H   0  0  0  0  0  0  0  0  0  0  0  0
   -2.8693   -3.1977    0.3011 H   0  0  0  0  0  0  0  0  0  0  0  0
    4.2870   -1.0903   -2.5684 H   0  0  0  0  0  0  0  0  0  0  0  0
    5.4817   -0.1928   -1.6896 H   0  0  0  0  0  0  0  0  0  0  0  0
  1 17  1  0  0  0  0
  2 16  2  0  0  0  0
  3 18  2  0  0  0  0
  4 13  1  0  0  0  0
  4 16  1  0  0  0  0
  4 27  1  0  0  0  0
  5 12  2  0  0  0  0
  5 17  1  0  0  0  0
  6 14  2  0  0  0  0
  6 19  1  0  0  0  0
  7 18  1  0  0  0  0
  7 19  2  0  0  0  0
  8 19  1  0  0  0  0
  8 28  1  0  0  0  0
  8 29  1  0  0  0  0
  9 10  1  0  0  0  0
  9 11  1  0  0  0  0
  9 14  1  0  0  0  0
  9 20  1  0  0  0  0
 10 12  1  0  0  0  0
 10 15  1  0  0  0  0
 10 21  1  0  0  0  0
 11 13  1  0  0  0  0
 11 22  1  0  0  0  0
 11 23  1  0  0  0  0
 12 16  1  0  0  0  0
 13 24  1  0  0  0  0
 13 25  1  0  0  0  0
 14 18  1  0  0  0  0
 15 17  2  0  0  0  0
 15 26  1  0  0  0  0
M  END
> <PUBCHEM_COMPOUND_CID>
3660

> <PUBCHEM_CONFORMER_RMSD>
0.6

> <PUBCHEM_CONFORMER_DIVERSEORDER>
3
46
26
33
16
21
29
1
9
39
36
2
25
37
4
44
7
40
43
34
19
13
18
31
14
45
38
28
30
27
15
41
32
6
35
5
8
17
24
20
10
23
12
42
22
11

> <PUBCHEM_MMFF94_PARTIAL_CHARGES>
22
1 -0.11
10 0.2
12 0.39
13 0.3
14 0.39
15 -0.29
16 0.63
17 0.28
18 0.78
19 0.71
2 -0.57
26 0.15
27 0.37
28 0.4
29 0.4
3 -0.57
4 -0.73
5 -0.62
6 -0.66
7 -0.66
8 -0.85
9 0.06

> <PUBCHEM_EFFECTIVE_ROTOR_COUNT>
1.8

> <PUBCHEM_PHARMACOPHORE_FEATURES>
11
1 1 hydrophobe
1 2 acceptor
1 3 acceptor
1 4 donor
1 5 acceptor
1 6 acceptor
1 7 donor
1 8 donor
5 5 10 12 15 17 rings
5 6 7 14 18 19 rings
7 4 9 10 11 12 13 16 rings

> <PUBCHEM_HEAVY_ATOM_COUNT>
19

> <PUBCHEM_ATOM_DEF_STEREO_COUNT>
0

> <PUBCHEM_ATOM_UDEF_STEREO_COUNT>
2

> <PUBCHEM_BOND_DEF_STEREO_COUNT>
0

> <PUBCHEM_BOND_UDEF_STEREO_COUNT>
0

> <PUBCHEM_ISOTOPIC_ATOM_COUNT>
0

> <PUBCHEM_COMPONENT_COUNT>
1

> <PUBCHEM_CACTVS_TAUTO_COUNT>
6

> <PUBCHEM_CONFORMER_ID>
00000E4C00000003

> <PUBCHEM_MMFF94_ENERGY>
43.5803

> <PUBCHEM_FEATURE_SELFOVERLAP>
55.921

> <PUBCHEM_SHAPE_FINGERPRINT>
10498660 4 18342184379131600421
12173636 292 18267309909623527741
12236239 1 16845303704775390426
12788726 201 18341897381132694241
13140716 1 18127688228012147497
13538477 17 17489314031825664034
13764800 53 18202556289449957739
16752209 62 18130519573464430527
16945 1 18272092669160984899
17134986 127 17765434640111862709
17357779 13 18263085422498053799
18186145 218 18040998492119289952
19049666 15 18261394489889822818
20510252 161 18411140220976725137
20600515 1 17769963206220445024
20671657 1 17835249221775629561
21501502 16 18269561704942019178
21524375 3 17906738355717963901
21618674 68 18117848702660989284
21756936 100 16557029408573037700
22802520 49 18335133215552656410
23402539 116 18340782458967029462
23557571 272 18337117773964153392
23559900 14 18341618079815396198
2748010 2 17839185108589420651
350125 39 17982456193841653123
6049 1 17894353271911414952
7364860 26 17330842825289318017
77492 1 16917076533780830690
81228 2 18413392029554405073

> <PUBCHEM_SHAPE_MULTIPOLES>
360.31
6.62
3.14
1.29
5.63
1.67
0.14
1.08
-2.23
-4.5
0.69
0.95
-0.21
0.17

> <PUBCHEM_SHAPE_SELFOVERLAP>
775.606

> <PUBCHEM_SHAPE_VOLUME>
201.6

> <PUBCHEM_COORDINATE_TYPE>
2
5
10

$$$$

