12684
  -OEChem-06261207142D

 36 35  0     0  0  0  0  0  0999 V2000
    4.5981   -0.0490    0.0000 P   0  0  0  0  0  0  0  0  0  0  0  0
    6.3301   -0.0490    0.0000 P   0  0  0  0  0  0  0  0  0  0  0  0
    3.7320   -0.5490    0.0000 O   0  0  0  0  0  0  0  0  0  0  0  0
    4.0981    0.8170    0.0000 O   0  0  0  0  0  0  0  0  0  0  0  0
    5.4641    0.4510    0.0000 O   0  0  0  0  0  0  0  0  0  0  0  0
    7.1962    0.4510    0.0000 O   0  0  0  0  0  0  0  0  0  0  0  0
    6.3301   -1.0490    0.0000 O   0  0  0  0  0  0  0  0  0  0  0  0
    5.0981   -0.9151    0.0000 O   0  0  0  0  0  0  0  0  0  0  0  0
    2.8660   -0.0490    0.0000 C   0  0  0  0  0  0  0  0  0  0  0  0
    4.5981    1.6830    0.0000 C   0  0  0  0  0  0  0  0  0  0  0  0
    2.0000   -0.5490    0.0000 C   0  0  0  0  0  0  0  0  0  0  0  0
    4.0981    2.5490    0.0000 C   0  0  0  0  0  0  0  0  0  0  0  0
    8.0622   -0.0490    0.0000 C   0  0  0  0  0  0  0  0  0  0  0  0
    7.1962   -1.5490    0.0000 C   0  0  0  0  0  0  0  0  0  0  0  0
    8.9282    0.4510    0.0000 C   0  0  0  0  0  0  0  0  0  0  0  0
    7.1962   -2.5490    0.0000 C   0  0  0  0  0  0  0  0  0  0  0  0
    3.2646    0.4259    0.0000 H   0  0  0  0  0  0  0  0  0  0  0  0
    2.4675    0.4259    0.0000 H   0  0  0  0  0  0  0  0  0  0  0  0
    5.0730    1.2845    0.0000 H   0  0  0  0  0  0  0  0  0  0  0  0
    5.0730    2.0815    0.0000 H   0  0  0  0  0  0  0  0  0  0  0  0
    4.6350    2.8590    0.0000 H   0  0  0  0  0  0  0  0  0  0  0  0
    3.7881    3.0860    0.0000 H   0  0  0  0  0  0  0  0  0  0  0  0
    3.5611    2.2390    0.0000 H   0  0  0  0  0  0  0  0  0  0  0  0
    1.6900   -0.0121    0.0000 H   0  0  0  0  0  0  0  0  0  0  0  0
    1.4631   -0.8590    0.0000 H   0  0  0  0  0  0  0  0  0  0  0  0
    2.3100   -1.0860    0.0000 H   0  0  0  0  0  0  0  0  0  0  0  0
    7.8067   -1.6567    0.0000 H   0  0  0  0  0  0  0  0  0  0  0  0
    7.4082   -0.9664    0.0000 H   0  0  0  0  0  0  0  0  0  0  0  0
    7.6636   -0.5240    0.0000 H   0  0  0  0  0  0  0  0  0  0  0  0
    8.4607   -0.5240    0.0000 H   0  0  0  0  0  0  0  0  0  0  0  0
    9.2382   -0.0860    0.0000 H   0  0  0  0  0  0  0  0  0  0  0  0
    9.4651    0.7610    0.0000 H   0  0  0  0  0  0  0  0  0  0  0  0
    8.6182    0.9879    0.0000 H   0  0  0  0  0  0  0  0  0  0  0  0
    6.5762   -2.5490    0.0000 H   0  0  0  0  0  0  0  0  0  0  0  0
    7.1962   -3.1690    0.0000 H   0  0  0  0  0  0  0  0  0  0  0  0
    7.8162   -2.5490    0.0000 H   0  0  0  0  0  0  0  0  0  0  0  0
  1  3  1  0  0  0  0
  1  4  1  0  0  0  0
  1  5  1  0  0  0  0
  1  8  2  0  0  0  0
  2  5  1  0  0  0  0
  2  6  1  0  0  0  0
  2  7  1  0  0  0  0
  3  9  1  0  0  0  0
  4 10  1  0  0  0  0
  6 13  1  0  0  0  0
  7 14  1  0  0  0  0
  9 11  1  0  0  0  0
  9 17  1  0  0  0  0
  9 18  1  0  0  0  0
 10 12  1  0  0  0  0
 10 19  1  0  0  0  0
 10 20  1  0  0  0  0
 11 24  1  0  0  0  0
 11 25  1  0  0  0  0
 11 26  1  0  0  0  0
 12 21  1  0  0  0  0
 12 22  1  0  0  0  0
 12 23  1  0  0  0  0
 13 15  1  0  0  0  0
 13 29  1  0  0  0  0
 13 30  1  0  0  0  0
 14 16  1  0  0  0  0
 14 27  1  0  0  0  0
 14 28  1  0  0  0  0
 15 31  1  0  0  0  0
 15 32  1  0  0  0  0
 15 33  1  0  0  0  0
 16 34  1  0  0  0  0
 16 35  1  0  0  0  0
 16 36  1  0  0  0  0
M  END
> <PUBCHEM_COMPOUND_CID>
12684

> <PUBCHEM_COMPOUND_CANONICALIZED>
1

> <PUBCHEM_CACTVS_COMPLEXITY>
197

> <PUBCHEM_CACTVS_HBOND_ACCEPTOR>
6

> <PUBCHEM_CACTVS_HBOND_DONOR>
0

> <PUBCHEM_CACTVS_ROTATABLE_BOND>
10

> <PUBCHEM_CACTVS_SUBSKEYS>
AAADceBwOAMAAAAAAAAAAAAAAAAAAAAAAAAAAAAAAAAAAAAAAAAAGgAAACAAAACggAICAAAAARAAQAAAAIAAAAAAAAAAAAAAAAAAAAAAAAAAAAAAAAAAAAAAAAAAAAAAAAAAAAAAAAAAAAAAAAAAAAAAAA==

> <PUBCHEM_IUPAC_OPENEYE_NAME>
diethoxyphosphanyl diethyl phosphate

> <PUBCHEM_IUPAC_CAS_NAME>
phosphoric acid diethoxyphosphino diethyl ester

> <PUBCHEM_IUPAC_NAME>
diethoxyphosphanyl diethyl phosphate

> <PUBCHEM_IUPAC_SYSTEMATIC_NAME>
diethoxyphosphanyl diethyl phosphate

> <PUBCHEM_IUPAC_TRADITIONAL_NAME>
phosphoric acid diethoxyphosphino diethyl ester

> <PUBCHEM_IUPAC_INCHI>
InChI=1S/C8H20O6P2/c1-5-10-15(11-6-2)14-16(9,12-7-3)13-8-4/h5-8H2,1-4H3

> <PUBCHEM_IUPAC_INCHIKEY>
CFQUMKJJLXSKET-UHFFFAOYSA-N

> <PUBCHEM_XLOGP3_AA>
1

> <PUBCHEM_EXACT_MASS>
274.073512

> <PUBCHEM_MOLECULAR_FORMULA>
C8H20O6P2

> <PUBCHEM_MOLECULAR_WEIGHT>
274.188324

> <PUBCHEM_OPENEYE_CAN_SMILES>
CCOP(OCC)OP(=O)(OCC)OCC

> <PUBCHEM_OPENEYE_ISO_SMILES>
CCOP(OCC)OP(=O)(OCC)OCC

> <PUBCHEM_CACTVS_TPSA>
63.2

> <PUBCHEM_MONOISOTOPIC_WEIGHT>
274.073512

> <PUBCHEM_TOTAL_CHARGE>
0

> <PUBCHEM_HEAVY_ATOM_COUNT>
16

> <PUBCHEM_ATOM_DEF_STEREO_COUNT>
0

> <PUBCHEM_ATOM_UDEF_STEREO_COUNT>
0

> <PUBCHEM_BOND_DEF_STEREO_COUNT>
0

> <PUBCHEM_BOND_UDEF_STEREO_COUNT>
0

> <PUBCHEM_ISOTOPIC_ATOM_COUNT>
0

> <PUBCHEM_COMPONENT_COUNT>
1

> <PUBCHEM_CACTVS_TAUTO_COUNT>
1

> <PUBCHEM_COORDINATE_TYPE>
1
5
255

$$$$

