9057
  -OEChem-06261203212D

 38 42  0     0  0  0  0  0  0999 V2000
    2.9180   -0.5000    0.0000 C   0  0  0  0  0  0  0  0  0  0  0  0
    2.0080   -1.0068    0.0000 C   0  0  0  0  0  0  0  0  0  0  0  0
    3.7841   -1.0000    0.0000 C   0  0  0  0  0  0  0  0  0  0  0  0
    2.0000   -2.0484    0.0000 C   0  0  0  0  0  0  0  0  0  0  0  0
    3.8001   -2.0415    0.0000 C   0  0  0  0  0  0  0  0  0  0  0  0
    2.9021   -2.5693    0.0000 C   0  0  0  0  0  0  0  0  0  0  0  0
    3.7841    1.0000    0.0000 C   0  0  0  0  0  0  0  0  0  0  0  0
    2.9180    0.5000    0.0000 C   0  0  0  0  0  0  0  0  0  0  0  0
    4.6501    0.5000    0.0000 C   0  0  0  0  0  0  0  0  0  0  0  0
    4.6501   -0.5000    0.0000 C   0  0  0  0  0  0  0  0  0  0  0  0
    3.7680    2.0415    0.0000 C   0  0  0  0  0  0  0  0  0  0  0  0
    4.7520   -2.5621    0.0000 C   0  0  0  0  0  0  0  0  0  0  0  0
    4.6660    2.5693    0.0000 C   0  0  0  0  0  0  0  0  0  0  0  0
    2.8937   -3.6542    0.0000 C   0  0  0  0  0  0  0  0  0  0  0  0
    5.5601    1.0068    0.0000 C   0  0  0  0  0  0  0  0  0  0  0  0
    5.5681    2.0484    0.0000 C   0  0  0  0  0  0  0  0  0  0  0  0
    2.8161    2.5621    0.0000 C   0  0  0  0  0  0  0  0  0  0  0  0
    4.7688   -3.6470    0.0000 C   0  0  0  0  0  0  0  0  0  0  0  0
    3.8334   -4.1967    0.0000 C   0  0  0  0  0  0  0  0  0  0  0  0
    4.6744    3.6542    0.0000 C   0  0  0  0  0  0  0  0  0  0  0  0
    2.7993    3.6470    0.0000 C   0  0  0  0  0  0  0  0  0  0  0  0
    3.7348    4.1967    0.0000 C   0  0  0  0  0  0  0  0  0  0  0  0
    1.8035   -0.4216    0.0000 H   0  0  0  0  0  0  0  0  0  0  0  0
    1.3964   -1.1082    0.0000 H   0  0  0  0  0  0  0  0  0  0  0  0
    1.3900   -1.9376    0.0000 H   0  0  0  0  0  0  0  0  0  0  0  0
    1.7864   -2.6305    0.0000 H   0  0  0  0  0  0  0  0  0  0  0  0
    2.3811    0.8100    0.0000 H   0  0  0  0  0  0  0  0  0  0  0  0
    5.1870   -0.8100    0.0000 H   0  0  0  0  0  0  0  0  0  0  0  0
    5.2829   -2.2418    0.0000 H   0  0  0  0  0  0  0  0  0  0  0  0
    2.3556   -3.9622    0.0000 H   0  0  0  0  0  0  0  0  0  0  0  0
    6.0934    0.6907    0.0000 H   0  0  0  0  0  0  0  0  0  0  0  0
    6.1062    2.3564    0.0000 H   0  0  0  0  0  0  0  0  0  0  0  0
    2.2852    2.2418    0.0000 H   0  0  0  0  0  0  0  0  0  0  0  0
    5.3093   -3.9508    0.0000 H   0  0  0  0  0  0  0  0  0  0  0  0
    3.8357   -4.8167    0.0000 H   0  0  0  0  0  0  0  0  0  0  0  0
    5.2125    3.9622    0.0000 H   0  0  0  0  0  0  0  0  0  0  0  0
    2.2589    3.9508    0.0000 H   0  0  0  0  0  0  0  0  0  0  0  0
    3.7324    4.8167    0.0000 H   0  0  0  0  0  0  0  0  0  0  0  0
  1  2  1  0  0  0  0
  1  3  2  0  0  0  0
  1  8  1  0  0  0  0
  2  4  1  0  0  0  0
  2 23  1  0  0  0  0
  2 24  1  0  0  0  0
  3  5  1  0  0  0  0
  3 10  1  0  0  0  0
  4  6  1  0  0  0  0
  4 25  1  0  0  0  0
  4 26  1  0  0  0  0
  5  6  1  0  0  0  0
  5 12  2  0  0  0  0
  6 14  2  0  0  0  0
  7  8  2  0  0  0  0
  7  9  1  0  0  0  0
  7 11  1  0  0  0  0
  8 27  1  0  0  0  0
  9 10  2  0  0  0  0
  9 15  1  0  0  0  0
 10 28  1  0  0  0  0
 11 13  1  0  0  0  0
 11 17  2  0  0  0  0
 12 18  1  0  0  0  0
 12 29  1  0  0  0  0
 13 16  1  0  0  0  0
 13 20  2  0  0  0  0
 14 19  1  0  0  0  0
 14 30  1  0  0  0  0
 15 16  2  0  0  0  0
 15 31  1  0  0  0  0
 16 32  1  0  0  0  0
 17 21  1  0  0  0  0
 17 33  1  0  0  0  0
 18 19  2  0  0  0  0
 18 34  1  0  0  0  0
 19 35  1  0  0  0  0
 20 22  1  0  0  0  0
 20 36  1  0  0  0  0
 21 22  2  0  0  0  0
 21 37  1  0  0  0  0
 22 38  1  0  0  0  0
M  END
> <PUBCHEM_COMPOUND_CID>
9057

> <PUBCHEM_COMPOUND_CANONICALIZED>
1

> <PUBCHEM_CACTVS_COMPLEXITY>
399

> <PUBCHEM_CACTVS_HBOND_ACCEPTOR>
0

> <PUBCHEM_CACTVS_HBOND_DONOR>
0

> <PUBCHEM_CACTVS_ROTATABLE_BOND>
0

> <PUBCHEM_CACTVS_SUBSKEYS>
AAADceB4AAAAAAAAAAAAAAAAAAAAAAAAAAAwYMGDAAAAAADBVAAAGAAAAAAADACAGAAwAMAAAACAAiBCAAACAAAgAAAIiAAAAIgIICKAERCAIAAggAAIiAcAgMAOwAACAAAQAACAAAQAACAAAAAAAAAAAA==

> <PUBCHEM_IUPAC_OPENEYE_NAME>
12,13-dihydronaphtho[1,2-b]phenanthrene

> <PUBCHEM_IUPAC_CAS_NAME>
12,13-dihydronaphtho[1,2-b]phenanthrene

> <PUBCHEM_IUPAC_NAME>
12,13-dihydronaphtho[1,2-b]phenanthrene

> <PUBCHEM_IUPAC_SYSTEMATIC_NAME>
12,13-dihydronaphtho[1,2-b]phenanthrene

> <PUBCHEM_IUPAC_TRADITIONAL_NAME>
12,13-dihydronaphtho[1,2-b]phenanthrene

> <PUBCHEM_IUPAC_INCHI>
InChI=1S/C22H16/c1-3-7-19-15(5-1)9-11-17-14-22-18(13-21(17)19)12-10-16-6-2-4-8-20(16)22/h1-9,11,13-14H,10,12H2

> <PUBCHEM_IUPAC_INCHIKEY>
CGVKCCJKUPLUIW-UHFFFAOYSA-N

> <PUBCHEM_XLOGP3>
7.3

> <PUBCHEM_EXACT_MASS>
280.125201

> <PUBCHEM_MOLECULAR_FORMULA>
C22H16

> <PUBCHEM_MOLECULAR_WEIGHT>
280.36244

> <PUBCHEM_OPENEYE_CAN_SMILES>
C1CC2=C(C=C3C=CC4=CC=CC=C4C3=C2)C5=CC=CC=C51

> <PUBCHEM_OPENEYE_ISO_SMILES>
C1CC2=C(C=C3C=CC4=CC=CC=C4C3=C2)C5=CC=CC=C51

> <PUBCHEM_CACTVS_TPSA>
0

> <PUBCHEM_MONOISOTOPIC_WEIGHT>
280.125201

> <PUBCHEM_TOTAL_CHARGE>
0

> <PUBCHEM_HEAVY_ATOM_COUNT>
22

> <PUBCHEM_ATOM_DEF_STEREO_COUNT>
0

> <PUBCHEM_ATOM_UDEF_STEREO_COUNT>
0

> <PUBCHEM_BOND_DEF_STEREO_COUNT>
0

> <PUBCHEM_BOND_UDEF_STEREO_COUNT>
0

> <PUBCHEM_ISOTOPIC_ATOM_COUNT>
0

> <PUBCHEM_COMPONENT_COUNT>
1

> <PUBCHEM_CACTVS_TAUTO_COUNT>
1

> <PUBCHEM_COORDINATE_TYPE>
1
5
255

> <PUBCHEM_BONDANNOTATIONS>
1  3  8
1  8  8
11  13  8
11  17  8
12  18  8
13  16  8
13  20  8
14  19  8
15  16  8
17  21  8
18  19  8
20  22  8
21  22  8
3  10  8
5  12  8
5  6  8
6  14  8
7  11  8
7  8  8
7  9  8
9  10  8
9  15  8

$$$$

