6930
  -OEChem-06261201353D

 45 46  0     0  0  0  0  0  0999 V2000
    3.6836    1.2355    0.9689 O   0  0  0  0  0  0  0  0  0  0  0  0
   -2.2210   -1.3958   -0.1299 C   0  0  0  0  0  0  0  0  0  0  0  0
   -1.8974    1.6323    0.1746 C   0  0  0  0  0  0  0  0  0  0  0  0
   -3.3593   -0.3762   -0.3564 C   0  0  0  0  0  0  0  0  0  0  0  0
   -3.1945    0.8623    0.5081 C   0  0  0  0  0  0  0  0  0  0  0  0
   -0.8469   -0.7141   -0.1090 C   0  0  0  0  0  0  0  0  0  0  0  0
   -0.6968    0.6869    0.0403 C   0  0  0  0  0  0  0  0  0  0  0  0
   -2.4310   -2.1277    1.2142 C   0  0  0  0  0  0  0  0  0  0  0  0
   -2.3321   -2.4348   -1.2712 C   0  0  0  0  0  0  0  0  0  0  0  0
   -2.0710    2.4038   -1.1525 C   0  0  0  0  0  0  0  0  0  0  0  0
   -1.6962    2.6618    1.3123 C   0  0  0  0  0  0  0  0  0  0  0  0
    0.3167   -1.5101   -0.2038 C   0  0  0  0  0  0  0  0  0  0  0  0
    0.6075    1.2302    0.0261 C   0  0  0  0  0  0  0  0  0  0  0  0
    1.5926   -0.9497   -0.1956 C   0  0  0  0  0  0  0  0  0  0  0  0
    1.7379    0.4233   -0.0887 C   0  0  0  0  0  0  0  0  0  0  0  0
    2.7804   -1.8489   -0.3058 C   0  0  0  0  0  0  0  0  0  0  0  0
    3.0543    1.0472   -0.0899 C   0  0  0  0  0  0  0  0  0  0  0  0
    3.2803   -2.3124    1.0600 C   0  0  0  0  0  0  0  0  0  0  0  0
    3.6929    1.4864   -1.4017 C   0  0  0  0  0  0  0  0  0  0  0  0
   -4.3307   -0.8399   -0.1409 H   0  0  0  0  0  0  0  0  0  0  0  0
   -3.3996   -0.0781   -1.4117 H   0  0  0  0  0  0  0  0  0  0  0  0
   -4.0669    1.5149    0.3735 H   0  0  0  0  0  0  0  0  0  0  0  0
   -3.2026    0.5691    1.5655 H   0  0  0  0  0  0  0  0  0  0  0  0
   -1.7055   -2.9388    1.3488 H   0  0  0  0  0  0  0  0  0  0  0  0
   -2.3164   -1.4542    2.0705 H   0  0  0  0  0  0  0  0  0  0  0  0
   -3.4304   -2.5742    1.2693 H   0  0  0  0  0  0  0  0  0  0  0  0
   -1.6685   -3.2933   -1.1244 H   0  0  0  0  0  0  0  0  0  0  0  0
   -3.3512   -2.8339   -1.3394 H   0  0  0  0  0  0  0  0  0  0  0  0
   -2.0832   -1.9865   -2.2404 H   0  0  0  0  0  0  0  0  0  0  0  0
   -1.2109    3.0525   -1.3567 H   0  0  0  0  0  0  0  0  0  0  0  0
   -2.1700    1.7289   -2.0096 H   0  0  0  0  0  0  0  0  0  0  0  0
   -2.9603    3.0438   -1.1243 H   0  0  0  0  0  0  0  0  0  0  0  0
   -0.8877    3.3694    1.1008 H   0  0  0  0  0  0  0  0  0  0  0  0
   -2.6036    3.2584    1.4652 H   0  0  0  0  0  0  0  0  0  0  0  0
   -1.4601    2.1635    2.2600 H   0  0  0  0  0  0  0  0  0  0  0  0
    0.2274   -2.5918   -0.2760 H   0  0  0  0  0  0  0  0  0  0  0  0
    0.7489    2.3065    0.0988 H   0  0  0  0  0  0  0  0  0  0  0  0
    2.5197   -2.7309   -0.9055 H   0  0  0  0  0  0  0  0  0  0  0  0
    3.5971   -1.3696   -0.8565 H   0  0  0  0  0  0  0  0  0  0  0  0
    3.5898   -1.4673    1.6830 H   0  0  0  0  0  0  0  0  0  0  0  0
    4.1412   -2.9777    0.9397 H   0  0  0  0  0  0  0  0  0  0  0  0
    2.5017   -2.8607    1.6012 H   0  0  0  0  0  0  0  0  0  0  0  0
    3.8289    2.5707   -1.3890 H   0  0  0  0  0  0  0  0  0  0  0  0
    3.0517    1.2208   -2.2470 H   0  0  0  0  0  0  0  0  0  0  0  0
    4.6555    0.9826   -1.5201 H   0  0  0  0  0  0  0  0  0  0  0  0
  1 17  2  0  0  0  0
  2  4  1  0  0  0  0
  2  6  1  0  0  0  0
  2  8  1  0  0  0  0
  2  9  1  0  0  0  0
  3  5  1  0  0  0  0
  3  7  1  0  0  0  0
  3 10  1  0  0  0  0
  3 11  1  0  0  0  0
  4  5  1  0  0  0  0
  4 20  1  0  0  0  0
  4 21  1  0  0  0  0
  5 22  1  0  0  0  0
  5 23  1  0  0  0  0
  6  7  2  0  0  0  0
  6 12  1  0  0  0  0
  7 13  1  0  0  0  0
  8 24  1  0  0  0  0
  8 25  1  0  0  0  0
  8 26  1  0  0  0  0
  9 27  1  0  0  0  0
  9 28  1  0  0  0  0
  9 29  1  0  0  0  0
 10 30  1  0  0  0  0
 10 31  1  0  0  0  0
 10 32  1  0  0  0  0
 11 33  1  0  0  0  0
 11 34  1  0  0  0  0
 11 35  1  0  0  0  0
 12 14  2  0  0  0  0
 12 36  1  0  0  0  0
 13 15  2  0  0  0  0
 13 37  1  0  0  0  0
 14 15  1  0  0  0  0
 14 16  1  0  0  0  0
 15 17  1  0  0  0  0
 16 18  1  0  0  0  0
 16 38  1  0  0  0  0
 16 39  1  0  0  0  0
 17 19  1  0  0  0  0
 18 40  1  0  0  0  0
 18 41  1  0  0  0  0
 18 42  1  0  0  0  0
 19 43  1  0  0  0  0
 19 44  1  0  0  0  0
 19 45  1  0  0  0  0
M  END
> <PUBCHEM_COMPOUND_CID>
6930

> <PUBCHEM_CONFORMER_RMSD>
0.6

> <PUBCHEM_CONFORMER_DIVERSEORDER>
1
2
4
3

> <PUBCHEM_MMFF94_PARTIAL_CHARGES>
14
1 -0.57
12 -0.15
13 -0.15
14 -0.14
15 0.09
16 0.14
17 0.42
19 0.06
2 0.14
3 0.14
36 0.15
37 0.15
6 -0.14
7 -0.14

> <PUBCHEM_EFFECTIVE_ROTOR_COUNT>
2.8

> <PUBCHEM_PHARMACOPHORE_FEATURES>
6
1 1 acceptor
1 18 hydrophobe
3 2 8 9 hydrophobe
3 3 10 11 hydrophobe
6 2 3 4 5 6 7 rings
6 6 7 12 13 14 15 rings

> <PUBCHEM_HEAVY_ATOM_COUNT>
19

> <PUBCHEM_ATOM_DEF_STEREO_COUNT>
0

> <PUBCHEM_ATOM_UDEF_STEREO_COUNT>
0

> <PUBCHEM_BOND_DEF_STEREO_COUNT>
0

> <PUBCHEM_BOND_UDEF_STEREO_COUNT>
0

> <PUBCHEM_ISOTOPIC_ATOM_COUNT>
0

> <PUBCHEM_COMPONENT_COUNT>
1

> <PUBCHEM_CACTVS_TAUTO_COUNT>
2

> <PUBCHEM_CONFORMER_ID>
00001B1200000001

> <PUBCHEM_MMFF94_ENERGY>
66.9312

> <PUBCHEM_FEATURE_SELFOVERLAP>
30.465

> <PUBCHEM_SHAPE_FINGERPRINT>
10608611 8 18410014372551383020
10616163 171 18409443661623751958
10756046 5 18339073895518009542
10759866 29 18343576339772699420
10967382 1 18408885101100253925
11132069 177 18188490151265006392
11578080 2 17241910695867025115
12173636 292 18115584997356403477
12403814 3 18131912655003193685
12553582 1 18120653526674343767
13027679 85 18189611632283679713
13140716 1 18338233894198464018
13380535 21 18337659893262560732
13583140 156 17416677158025894049
14081887 123 18187377488531877056
14178342 30 18410017628453358208
14223421 5 18410857637945684232
14614273 12 18342182163197364629
14787075 74 17610344835837636536
15196674 1 18410011065911608405
15442244 35 18266742565966002570
15490181 8 17901093432781844733
15536298 74 18334858342304520598
16945 1 18194399996294450902
17492 89 18411422829677875186
17804303 29 18194116550186383134
18186145 218 18192989537698414172
19868273 325 18190463749199279151
20510252 161 18190735328592861160
20525323 117 18411139091247091787
20600515 1 17758117386519471930
21501502 16 18410291440880975054
21524375 3 18050848020555288085
2255824 54 18130781309193786210
23184049 29 18410858784681204034
2334 1 18410572890193351022
23366157 5 17988639727473273990
23388829 49 18193278485796569293
23402539 116 18191873323274964724
23419403 2 16324087913708314603
23463225 33 18340206388073011494
23557571 272 18116417172606622030
23558518 356 18341612671866073243
23559900 14 18337961189734992450
25147074 1 18411418440505199774
2748010 2 18408600396334595118
312423 11 18411973685092438014
3312278 4 18340199670596480539
34934 24 18335708182929924031
350125 39 18266733760903205065
352729 6 18190458462052274647
5104073 3 18410007771518822955
69090 78 18337114578687352447
7097593 13 18125448750523659010
7364860 26 18334012835132450302
74978 22 18268148841216413838
81228 2 18413105039844902729
9709674 26 18409165540974528782

> <PUBCHEM_SHAPE_MULTIPOLES>
385.14
6.32
3.17
1.17
3.62
0.16
0.01
-0.09
-0.04
-0.71
-0.14
-0.04
-0.09
-0.81

> <PUBCHEM_SHAPE_SELFOVERLAP>
806.013

> <PUBCHEM_SHAPE_VOLUME>
220.5

> <PUBCHEM_COORDINATE_TYPE>
2
5
10

$$$$

