3896
  -OEChem-06251223453D

 33 34  0     0  0  0  0  0  0999 V2000
   -2.7177   -1.0247    2.2826 O   0  0  0  0  0  0  0  0  0  0  0  0
    5.1047   -1.2400   -0.5003 O   0  0  0  0  0  0  0  0  0  0  0  0
   -5.2333    1.2732   -2.0519 O   0  0  0  0  0  0  0  0  0  0  0  0
    3.9241    2.2878    1.2035 O   0  0  0  0  0  0  0  0  0  0  0  0
    5.4679    1.4815   -0.2570 O   0  0  0  0  0  0  0  0  0  0  0  0
   -0.3042   -0.0507    0.0254 N   0  0  0  0  0  0  0  0  0  0  0  0
   -1.3335   -1.0136   -0.2169 C   0  0  0  0  0  0  0  0  0  0  0  0
   -2.7070   -0.4235   -0.0377 C   0  0  0  0  0  0  0  0  0  0  0  0
    1.0684   -0.3471   -0.1066 C   0  0  0  0  0  0  0  0  0  0  0  0
   -3.3285   -0.4598    1.2036 C   0  0  0  0  0  0  0  0  0  0  0  0
   -3.3359    0.1538   -1.1332 C   0  0  0  0  0  0  0  0  0  0  0  0
    2.0224    0.6390    0.1449 C   0  0  0  0  0  0  0  0  0  0  0  0
    1.4719   -1.6265   -0.4885 C   0  0  0  0  0  0  0  0  0  0  0  0
    3.3798    0.3457    0.0143 C   0  0  0  0  0  0  0  0  0  0  0  0
   -4.6088    0.7045   -0.9845 C   0  0  0  0  0  0  0  0  0  0  0  0
    3.7832   -0.9337   -0.3677 C   0  0  0  0  0  0  0  0  0  0  0  0
   -4.6013    0.0909    1.3522 C   0  0  0  0  0  0  0  0  0  0  0  0
    2.8293   -1.9198   -0.6191 C   0  0  0  0  0  0  0  0  0  0  0  0
   -5.2415    0.6731    0.2582 C   0  0  0  0  0  0  0  0  0  0  0  0
    4.3599    1.3900    0.2788 C   0  0  0  0  0  0  0  0  0  0  0  0
   -1.2175   -1.9034    0.4142 H   0  0  0  0  0  0  0  0  0  0  0  0
   -1.2614   -1.3836   -1.2493 H   0  0  0  0  0  0  0  0  0  0  0  0
   -0.5501    0.8904    0.3131 H   0  0  0  0  0  0  0  0  0  0  0  0
   -2.8474    0.1840   -2.1037 H   0  0  0  0  0  0  0  0  0  0  0  0
    1.6888    1.6347    0.4288 H   0  0  0  0  0  0  0  0  0  0  0  0
    0.7647   -2.4242   -0.6943 H   0  0  0  0  0  0  0  0  0  0  0  0
    3.1298   -2.9208   -0.9175 H   0  0  0  0  0  0  0  0  0  0  0  0
   -5.0996    0.0697    2.3176 H   0  0  0  0  0  0  0  0  0  0  0  0
   -6.2330    1.0988    0.3872 H   0  0  0  0  0  0  0  0  0  0  0  0
   -1.7563   -1.0460    2.1508 H   0  0  0  0  0  0  0  0  0  0  0  0
    5.1896   -2.1703   -0.7709 H   0  0  0  0  0  0  0  0  0  0  0  0
   -6.1036    1.6026   -1.7690 H   0  0  0  0  0  0  0  0  0  0  0  0
    4.5898    2.9877    1.3749 H   0  0  0  0  0  0  0  0  0  0  0  0
  1 10  1  0  0  0  0
  1 30  1  0  0  0  0
  2 16  1  0  0  0  0
  2 31  1  0  0  0  0
  3 15  1  0  0  0  0
  3 32  1  0  0  0  0
  4 20  1  0  0  0  0
  4 33  1  0  0  0  0
  5 20  2  0  0  0  0
  6  7  1  0  0  0  0
  6  9  1  0  0  0  0
  6 23  1  0  0  0  0
  7  8  1  0  0  0  0
  7 21  1  0  0  0  0
  7 22  1  0  0  0  0
  8 10  2  0  0  0  0
  8 11  1  0  0  0  0
  9 12  2  0  0  0  0
  9 13  1  0  0  0  0
 10 17  1  0  0  0  0
 11 15  2  0  0  0  0
 11 24  1  0  0  0  0
 12 14  1  0  0  0  0
 12 25  1  0  0  0  0
 13 18  2  0  0  0  0
 13 26  1  0  0  0  0
 14 16  2  0  0  0  0
 14 20  1  0  0  0  0
 15 19  1  0  0  0  0
 16 18  1  0  0  0  0
 17 19  2  0  0  0  0
 17 28  1  0  0  0  0
 18 27  1  0  0  0  0
 19 29  1  0  0  0  0
M  END
> <PUBCHEM_COMPOUND_CID>
3896

> <PUBCHEM_CONFORMER_RMSD>
0.6

> <PUBCHEM_CONFORMER_DIVERSEORDER>
1
85
23
62
35
69
71
60
21
48
87
86
27
59
12
19
88
26
84
61
29
66
57
77
13
4
49
17
80
56
14
22
75
68
81
91
40
64
50
70
25
6
20
72
28
54
44
33
79
24
42
16
74
51
8
63
7
78
46
5
89
45
67
18
41
65
15
3
11
76
9
90
53
47
32
52
58
2
38
73
37
82
55
31
10
43
36
83
39
30
34

> <PUBCHEM_MMFF94_PARTIAL_CHARGES>
31
1 -0.53
10 0.08
11 -0.15
12 -0.15
13 -0.15
14 0.09
15 0.08
16 0.08
17 -0.15
18 -0.15
19 -0.15
2 -0.53
20 0.63
23 0.4
24 0.15
25 0.15
26 0.15
27 0.15
28 0.15
29 0.15
3 -0.53
30 0.45
31 0.45
32 0.45
33 0.5
4 -0.65
5 -0.57
6 -0.87
7 0.51
8 -0.14
9 0.1

> <PUBCHEM_EFFECTIVE_ROTOR_COUNT>
4

> <PUBCHEM_PHARMACOPHORE_FEATURES>
10
1 1 donor
1 2 donor
1 3 donor
1 4 acceptor
1 5 acceptor
1 6 cation
1 6 donor
3 4 5 20 anion
6 8 10 11 15 17 19 rings
6 9 12 13 14 16 18 rings

> <PUBCHEM_HEAVY_ATOM_COUNT>
20

> <PUBCHEM_ATOM_DEF_STEREO_COUNT>
0

> <PUBCHEM_ATOM_UDEF_STEREO_COUNT>
0

> <PUBCHEM_BOND_DEF_STEREO_COUNT>
0

> <PUBCHEM_BOND_UDEF_STEREO_COUNT>
0

> <PUBCHEM_ISOTOPIC_ATOM_COUNT>
0

> <PUBCHEM_COMPONENT_COUNT>
1

> <PUBCHEM_CACTVS_TAUTO_COUNT>
25

> <PUBCHEM_CONFORMER_ID>
00000F3800000001

> <PUBCHEM_MMFF94_ENERGY>
67.1732

> <PUBCHEM_FEATURE_SELFOVERLAP>
50.801

> <PUBCHEM_SHAPE_FINGERPRINT>
10014705 185 18412268315864914063
10912923 1 17313104163680388591
11089746 13 17240204313955663112
11471102 20 18260547827482196046
11796584 16 17346313860568771474
12236239 1 17022622004599513743
12403259 415 18202277017754741159
12616971 3 17531240690651559395
13631057 29 17824836537951129279
13675066 3 18202276987769039351
13760787 5 18040150733983338686
14251757 5 16517673347138806807
14386348 63 18131061654071631227
14528608 73 17748830687302933532
14848178 96 17896607180781130168
15081414 286 18409722950721007108
15375358 24 18202003230969891907
16079462 125 18130795568078825997
17834072 33 17676491626988973479
19489759 90 17418375796802096067
200 152 17603588564591754251
20554085 129 16988022578025698341
20612939 158 18187080663869310982
20645477 56 18271808999614072583
20645477 70 18261671566662221654
21033648 29 18273503368233382045
21065201 7 17203320130844053819
212916 134 17060063670297790243
23402655 69 17967816029003665246
23557571 272 17561072644431403847
23559900 14 17489302065931180790
268830 7 18261105339869760577
2916195 48 18131636677362731525
29717793 49 16950561120853767428
3545911 37 18410007710988327255
474 4 18187645752452727672
5104073 3 18408605825279272490
542803 24 17240760696687654747
543368 44 17240767233559561313
5924683 9 17774437158311362723
602551 16 16845000221969673498
633830 44 17677315230128923855
90127 26 18131348604999613036

> <PUBCHEM_SHAPE_MULTIPOLES>
377.26
13.52
1.71
1.38
1.13
0.19
-0.21
4.73
1.42
-2.68
-0.02
2.49
0.12
1.46

> <PUBCHEM_SHAPE_SELFOVERLAP>
816.33

> <PUBCHEM_SHAPE_VOLUME>
206

> <PUBCHEM_COORDINATE_TYPE>
2
5
10

$$$$

