14101
  -OEChem-06241222422D

 18 19  0     0  0  0  0  0  0999 V2000
    4.2690    1.4827    0.0000 O   0  0  0  0  0  0  0  0  0  0  0  0
    4.2690   -1.5173    0.0000 O   0  0  0  0  0  0  0  0  0  0  0  0
    2.5369    1.4827    0.0000 O   0  0  0  0  0  0  0  0  0  0  0  0
    5.1350   -0.0173    0.0000 C   0  0  0  0  0  0  0  0  0  0  0  0
    5.1350    0.9827    0.0000 C   0  0  0  0  0  0  0  0  0  0  0  0
    4.2690   -0.5173    0.0000 C   0  0  0  0  0  0  0  0  0  0  0  0
    6.0290   -0.5520    0.0000 C   0  0  0  0  0  0  0  0  0  0  0  0
    6.0290    1.5173    0.0000 C   0  0  0  0  0  0  0  0  0  0  0  0
    3.4030   -0.0173    0.0000 C   0  0  0  0  0  0  0  0  0  0  0  0
    6.9350   -0.0381    0.0000 C   0  0  0  0  0  0  0  0  0  0  0  0
    6.9350    1.0035    0.0000 C   0  0  0  0  0  0  0  0  0  0  0  0
    3.4030    0.9827    0.0000 C   0  0  0  0  0  0  0  0  0  0  0  0
    6.0218   -1.1720    0.0000 H   0  0  0  0  0  0  0  0  0  0  0  0
    6.0218    2.1373    0.0000 H   0  0  0  0  0  0  0  0  0  0  0  0
    2.8660   -0.3273    0.0000 H   0  0  0  0  0  0  0  0  0  0  0  0
    7.4708   -0.3502    0.0000 H   0  0  0  0  0  0  0  0  0  0  0  0
    7.4708    1.3156    0.0000 H   0  0  0  0  0  0  0  0  0  0  0  0
    2.0000    1.1727    0.0000 H   0  0  0  0  0  0  0  0  0  0  0  0
  1  5  1  0  0  0  0
  1 12  1  0  0  0  0
  2  6  2  0  0  0  0
  3 12  1  0  0  0  0
  3 18  1  0  0  0  0
  4  5  1  0  0  0  0
  4  6  1  0  0  0  0
  4  7  2  0  0  0  0
  5  8  2  0  0  0  0
  6  9  1  0  0  0  0
  7 10  1  0  0  0  0
  7 13  1  0  0  0  0
  8 11  1  0  0  0  0
  8 14  1  0  0  0  0
  9 12  2  0  0  0  0
  9 15  1  0  0  0  0
 10 11  2  0  0  0  0
 10 16  1  0  0  0  0
 11 17  1  0  0  0  0
M  END
> <PUBCHEM_COMPOUND_CID>
14101

> <PUBCHEM_COMPOUND_CANONICALIZED>
1

> <PUBCHEM_CACTVS_COMPLEXITY>
232

> <PUBCHEM_CACTVS_HBOND_ACCEPTOR>
3

> <PUBCHEM_CACTVS_HBOND_DONOR>
1

> <PUBCHEM_CACTVS_ROTATABLE_BOND>
0

> <PUBCHEM_CACTVS_SUBSKEYS>
AAADcYBwMAAAAAAAAAAAAAAAAAAAAAAAAAAwQAAAAAAAAACBAAAAGgAACAAADASAmAAwDoAABgCIAqBSAAACCAAkIAAIiAEGCMgcJjaENRqAMWAk4BEMqYeIyKCOAAAAAAAIAAAAAAAAABAAAAAAAAAAAA==

> <PUBCHEM_IUPAC_OPENEYE_NAME>
2-hydroxychromen-4-one

> <PUBCHEM_IUPAC_CAS_NAME>
2-hydroxy-1-benzopyran-4-one

> <PUBCHEM_IUPAC_NAME>
2-hydroxychromen-4-one

> <PUBCHEM_IUPAC_SYSTEMATIC_NAME>
2-oxidanylchromen-4-one

> <PUBCHEM_IUPAC_TRADITIONAL_NAME>
2-hydroxychromone

> <PUBCHEM_IUPAC_INCHI>
InChI=1S/C9H6O3/c10-7-5-9(11)12-8-4-2-1-3-6(7)8/h1-5,11H

> <PUBCHEM_IUPAC_INCHIKEY>
OWBBAPRUYLEWRR-UHFFFAOYSA-N

> <PUBCHEM_XLOGP3>
1.7

> <PUBCHEM_EXACT_MASS>
162.031694

> <PUBCHEM_MOLECULAR_FORMULA>
C9H6O3

> <PUBCHEM_MOLECULAR_WEIGHT>
162.14214

> <PUBCHEM_OPENEYE_CAN_SMILES>
C1=CC=C2C(=C1)C(=O)C=C(O2)O

> <PUBCHEM_OPENEYE_ISO_SMILES>
C1=CC=C2C(=C1)C(=O)C=C(O2)O

> <PUBCHEM_CACTVS_TPSA>
46.5

> <PUBCHEM_MONOISOTOPIC_WEIGHT>
162.031694

> <PUBCHEM_TOTAL_CHARGE>
0

> <PUBCHEM_HEAVY_ATOM_COUNT>
12

> <PUBCHEM_ATOM_DEF_STEREO_COUNT>
0

> <PUBCHEM_ATOM_UDEF_STEREO_COUNT>
0

> <PUBCHEM_BOND_DEF_STEREO_COUNT>
0

> <PUBCHEM_BOND_UDEF_STEREO_COUNT>
0

> <PUBCHEM_ISOTOPIC_ATOM_COUNT>
0

> <PUBCHEM_COMPONENT_COUNT>
1

> <PUBCHEM_CACTVS_TAUTO_COUNT>
3

> <PUBCHEM_COORDINATE_TYPE>
1
5
255

> <PUBCHEM_BONDANNOTATIONS>
1  12  8
1  5  8
10  11  8
4  5  8
4  6  8
4  7  8
5  8  8
6  9  8
7  10  8
8  11  8
9  12  8

$$$$

