47205634
  -OEChem-06241222592D

 37 38  0     0  0  0  0  0  0999 V2000
    4.7320    2.1830    0.0000 S   0  0  0  0  0  0  0  0  0  0  0  0
    4.7320   -2.8170    0.0000 O   0  0  0  0  0  0  0  0  0  0  0  0
    4.2320    3.0490    0.0000 O   0  0  0  0  0  0  0  0  0  0  0  0
    5.2320    1.3170    0.0000 O   0  0  0  0  0  0  0  0  0  0  0  0
    3.8660   -1.3170    0.0000 N   0  0  0  0  0  0  0  0  0  0  0  0
    3.8660    1.6830    0.0000 N   0  0  0  0  0  0  0  0  0  0  0  0
    3.0000   -2.8170    0.0000 C   0  0  0  0  0  0  0  0  0  0  0  0
    2.0000   -2.8170    0.0000 C   0  0  0  0  0  0  0  0  0  0  0  0
    2.5000   -3.6830    0.0000 C   0  0  0  0  0  0  0  0  0  0  0  0
    3.8660    0.6830    0.0000 C   0  0  0  0  0  0  0  0  0  0  0  0
    3.8660   -2.3170    0.0000 C   0  0  0  0  0  0  0  0  0  0  0  0
    4.7320    0.1830    0.0000 C   0  0  0  0  0  0  0  0  0  0  0  0
    3.0000    0.1830    0.0000 C   0  0  0  0  0  0  0  0  0  0  0  0
    3.0000   -0.8170    0.0000 C   0  0  0  0  0  0  0  0  0  0  0  0
    4.7320   -0.8170    0.0000 C   0  0  0  0  0  0  0  0  0  0  0  0
    5.5981    2.6830    0.0000 C   0  0  0  0  0  0  0  0  0  0  0  0
    5.5981    3.6830    0.0000 C   0  0  0  0  0  0  0  0  0  0  0  0
    2.8395   -2.2181    0.0000 H   0  0  0  0  0  0  0  0  0  0  0  0
    1.8923   -2.2064    0.0000 H   0  0  0  0  0  0  0  0  0  0  0  0
    1.4174   -3.0290    0.0000 H   0  0  0  0  0  0  0  0  0  0  0  0
    2.0250   -4.0815    0.0000 H   0  0  0  0  0  0  0  0  0  0  0  0
    2.9750   -4.0815    0.0000 H   0  0  0  0  0  0  0  0  0  0  0  0
    4.4030    0.9930    0.0000 H   0  0  0  0  0  0  0  0  0  0  0  0
    5.3426    0.0754    0.0000 H   0  0  0  0  0  0  0  0  0  0  0  0
    4.9441    0.7656    0.0000 H   0  0  0  0  0  0  0  0  0  0  0  0
    2.7880    0.7656    0.0000 H   0  0  0  0  0  0  0  0  0  0  0  0
    2.3894    0.0754    0.0000 H   0  0  0  0  0  0  0  0  0  0  0  0
    4.9441   -1.3996    0.0000 H   0  0  0  0  0  0  0  0  0  0  0  0
    5.3426   -0.7093    0.0000 H   0  0  0  0  0  0  0  0  0  0  0  0
    2.3894   -0.7093    0.0000 H   0  0  0  0  0  0  0  0  0  0  0  0
    2.7880   -1.3996    0.0000 H   0  0  0  0  0  0  0  0  0  0  0  0
    3.3291    1.9930    0.0000 H   0  0  0  0  0  0  0  0  0  0  0  0
    5.8101    2.1004    0.0000 H   0  0  0  0  0  0  0  0  0  0  0  0
    6.2087    2.7907    0.0000 H   0  0  0  0  0  0  0  0  0  0  0  0
    6.2181    3.6830    0.0000 H   0  0  0  0  0  0  0  0  0  0  0  0
    5.5981    4.3030    0.0000 H   0  0  0  0  0  0  0  0  0  0  0  0
    4.9781    3.6830    0.0000 H   0  0  0  0  0  0  0  0  0  0  0  0
  1  3  2  0  0  0  0
  1  4  2  0  0  0  0
  1  6  1  0  0  0  0
  1 16  1  0  0  0  0
  2 11  2  0  0  0  0
  5 11  1  0  0  0  0
  5 14  1  0  0  0  0
  5 15  1  0  0  0  0
  6 10  1  0  0  0  0
  6 32  1  0  0  0  0
  7  8  1  0  0  0  0
  7  9  1  0  0  0  0
  7 11  1  0  0  0  0
  7 18  1  0  0  0  0
  8  9  1  0  0  0  0
  8 19  1  0  0  0  0
  8 20  1  0  0  0  0
  9 21  1  0  0  0  0
  9 22  1  0  0  0  0
 10 12  1  0  0  0  0
 10 13  1  0  0  0  0
 10 23  1  0  0  0  0
 12 15  1  0  0  0  0
 12 24  1  0  0  0  0
 12 25  1  0  0  0  0
 13 14  1  0  0  0  0
 13 26  1  0  0  0  0
 13 27  1  0  0  0  0
 14 30  1  0  0  0  0
 14 31  1  0  0  0  0
 15 28  1  0  0  0  0
 15 29  1  0  0  0  0
 16 17  1  0  0  0  0
 16 33  1  0  0  0  0
 16 34  1  0  0  0  0
 17 35  1  0  0  0  0
 17 36  1  0  0  0  0
 17 37  1  0  0  0  0
M  END
> <PUBCHEM_COMPOUND_CID>
47205634

> <PUBCHEM_COMPOUND_CANONICALIZED>
1

> <PUBCHEM_CACTVS_COMPLEXITY>
376

> <PUBCHEM_CACTVS_HBOND_ACCEPTOR>
4

> <PUBCHEM_CACTVS_HBOND_DONOR>
1

> <PUBCHEM_CACTVS_ROTATABLE_BOND>
4

> <PUBCHEM_CACTVS_SUBSKEYS>
AAADceBzMABAAAAAAAAAAAAAGAAAAAAAAAAsAAAAAAAAAAAAAAAAHgQQQAAADSjFwASCAANAAAIIAAEQEHBAAAAAAAAAAIEIAAAAABIAwAAEAAAAFgCAAAAQAAAAAAAAAAAAAAAAAAAAAAAAAAAAAAAAAA==

> <PUBCHEM_IUPAC_OPENEYE_NAME>
N-[1-(cyclopropanecarbonyl)-4-piperidyl]ethanesulfonamide

> <PUBCHEM_IUPAC_CAS_NAME>
N-[1-[cyclopropyl(oxo)methyl]-4-piperidinyl]ethanesulfonamide

> <PUBCHEM_IUPAC_NAME>
N-[1-(cyclopropanecarbonyl)piperidin-4-yl]ethanesulfonamide

> <PUBCHEM_IUPAC_SYSTEMATIC_NAME>
N-(1-cyclopropylcarbonylpiperidin-4-yl)ethanesulfonamide

> <PUBCHEM_IUPAC_TRADITIONAL_NAME>
N-[1-(cyclopropanecarbonyl)-4-piperidyl]ethanesulfonamide

> <PUBCHEM_IUPAC_INCHI>
InChI=1S/C11H20N2O3S/c1-2-17(15,16)12-10-5-7-13(8-6-10)11(14)9-3-4-9/h9-10,12H,2-8H2,1H3

> <PUBCHEM_IUPAC_INCHIKEY>
GWXGKMWHIAGXQJ-UHFFFAOYSA-N

> <PUBCHEM_XLOGP3_AA>
0.2

> <PUBCHEM_EXACT_MASS>
260.119464

> <PUBCHEM_MOLECULAR_FORMULA>
C11H20N2O3S

> <PUBCHEM_MOLECULAR_WEIGHT>
260.3531

> <PUBCHEM_OPENEYE_CAN_SMILES>
CCS(=O)(=O)NC1CCN(CC1)C(=O)C2CC2

> <PUBCHEM_OPENEYE_ISO_SMILES>
CCS(=O)(=O)NC1CCN(CC1)C(=O)C2CC2

> <PUBCHEM_CACTVS_TPSA>
74.9

> <PUBCHEM_MONOISOTOPIC_WEIGHT>
260.119464

> <PUBCHEM_TOTAL_CHARGE>
0

> <PUBCHEM_HEAVY_ATOM_COUNT>
17

> <PUBCHEM_ATOM_DEF_STEREO_COUNT>
0

> <PUBCHEM_ATOM_UDEF_STEREO_COUNT>
0

> <PUBCHEM_BOND_DEF_STEREO_COUNT>
0

> <PUBCHEM_BOND_UDEF_STEREO_COUNT>
0

> <PUBCHEM_ISOTOPIC_ATOM_COUNT>
0

> <PUBCHEM_COMPONENT_COUNT>
1

> <PUBCHEM_CACTVS_TAUTO_COUNT>
1

> <PUBCHEM_COORDINATE_TYPE>
1
5
255

$$$$

