10761
  -OEChem-06261204562D

 41 41  0     0  0  0  0  0  0999 V2000
    7.3997    4.7596    0.0000 Cl  0  5  0  0  0  0  0  0  0  0  0  0
    0.8987    5.1588    0.0000 S   0  0  0  0  0  0  0  0  0  0  0  0
    2.2608    8.6040    0.0000 P   0  0  0  0  0  0  0  0  0  0  0  0
    2.6675    7.6904    0.0000 O   0  0  0  0  0  0  0  0  0  0  0  0
    1.8540    9.5175    0.0000 O   0  0  0  0  0  0  0  0  0  0  0  0
    3.1743    9.0107    0.0000 O   0  0  0  0  0  0  0  0  0  0  0  0
    1.3472    8.1972    0.0000 O   0  0  0  0  0  0  0  0  0  0  0  0
    1.3987    3.6200    0.0000 N   0  3  0  0  0  0  0  0  0  0  0  0
    3.1307    0.6200    0.0000 N   0  0  0  0  0  0  0  0  0  0  0  0
    3.9968    2.1200    0.0000 N   0  0  0  0  0  0  0  0  0  0  0  0
    1.3987    0.6200    0.0000 N   0  0  0  0  0  0  0  0  0  0  0  0
    2.2077    4.2078    0.0000 C   0  0  0  0  0  0  0  0  0  0  0  0
    1.8987    5.1588    0.0000 C   0  0  0  0  0  0  0  0  0  0  0  0
    1.3987    2.6200    0.0000 C   0  0  0  0  0  0  0  0  0  0  0  0
    2.4865    5.9679    0.0000 C   0  0  0  0  0  0  0  0  0  0  0  0
    0.5897    4.2078    0.0000 C   0  0  0  0  0  0  0  0  0  0  0  0
    2.2647    2.1200    0.0000 C   0  0  0  0  0  0  0  0  0  0  0  0
    3.1588    3.8988    0.0000 C   0  0  0  0  0  0  0  0  0  0  0  0
    2.0797    6.8814    0.0000 C   0  0  0  0  0  0  0  0  0  0  0  0
    2.2647    1.1200    0.0000 C   0  0  0  0  0  0  0  0  0  0  0  0
    3.1307    2.6200    0.0000 C   0  0  0  0  0  0  0  0  0  0  0  0
    3.9968    1.1200    0.0000 C   0  0  0  0  0  0  0  0  0  0  0  0
    4.8628    0.6200    0.0000 C   0  0  0  0  0  0  0  0  0  0  0  0
    0.7881    2.7277    0.0000 H   0  0  0  0  0  0  0  0  0  0  0  0
    1.1866    2.0374    0.0000 H   0  0  0  0  0  0  0  0  0  0  0  0
    2.9172    5.5219    0.0000 H   0  0  0  0  0  0  0  0  0  0  0  0
    3.0005    6.3146    0.0000 H   0  0  0  0  0  0  0  0  0  0  0  0
    0.0000    4.0162    0.0000 H   0  0  0  0  0  0  0  0  0  0  0  0
    2.9672    3.3091    0.0000 H   0  0  0  0  0  0  0  0  0  0  0  0
    3.7484    3.7072    0.0000 H   0  0  0  0  0  0  0  0  0  0  0  0
    3.3503    4.4884    0.0000 H   0  0  0  0  0  0  0  0  0  0  0  0
    1.6490    7.3274    0.0000 H   0  0  0  0  0  0  0  0  0  0  0  0
    1.5657    6.5347    0.0000 H   0  0  0  0  0  0  0  0  0  0  0  0
    3.1307    3.2400    0.0000 H   0  0  0  0  0  0  0  0  0  0  0  0
    1.3987    0.0000    0.0000 H   0  0  0  0  0  0  0  0  0  0  0  0
    0.8617    0.9300    0.0000 H   0  0  0  0  0  0  0  0  0  0  0  0
    4.5528    0.0831    0.0000 H   0  0  0  0  0  0  0  0  0  0  0  0
    5.3997    0.3100    0.0000 H   0  0  0  0  0  0  0  0  0  0  0  0
    5.1728    1.1569    0.0000 H   0  0  0  0  0  0  0  0  0  0  0  0
    2.2185   10.0191    0.0000 H   0  0  0  0  0  0  0  0  0  0  0  0
    3.6759    8.6463    0.0000 H   0  0  0  0  0  0  0  0  0  0  0  0
  2 13  1  0  0  0  0
  2 16  1  0  0  0  0
  3  4  1  0  0  0  0
  3  5  1  0  0  0  0
  3  6  1  0  0  0  0
  3  7  2  0  0  0  0
  4 19  1  0  0  0  0
  5 40  1  0  0  0  0
  6 41  1  0  0  0  0
  8 12  1  0  0  0  0
  8 14  1  0  0  0  0
  8 16  2  0  0  0  0
  9 20  2  0  0  0  0
  9 22  1  0  0  0  0
 10 21  1  0  0  0  0
 10 22  2  0  0  0  0
 11 20  1  0  0  0  0
 11 35  1  0  0  0  0
 11 36  1  0  0  0  0
 12 13  2  0  0  0  0
 12 18  1  0  0  0  0
 13 15  1  0  0  0  0
 14 17  1  0  0  0  0
 14 24  1  0  0  0  0
 14 25  1  0  0  0  0
 15 19  1  0  0  0  0
 15 26  1  0  0  0  0
 15 27  1  0  0  0  0
 16 28  1  0  0  0  0
 17 20  1  0  0  0  0
 17 21  2  0  0  0  0
 18 29  1  0  0  0  0
 18 30  1  0  0  0  0
 18 31  1  0  0  0  0
 19 32  1  0  0  0  0
 19 33  1  0  0  0  0
 21 34  1  0  0  0  0
 22 23  1  0  0  0  0
 23 37  1  0  0  0  0
 23 38  1  0  0  0  0
 23 39  1  0  0  0  0
M  CHG  2   1  -1   8   1
M  END
> <PUBCHEM_COMPOUND_CID>
10761

> <PUBCHEM_COMPOUND_CANONICALIZED>
1

> <PUBCHEM_CACTVS_COMPLEXITY>
413

> <PUBCHEM_CACTVS_HBOND_ACCEPTOR>
9

> <PUBCHEM_CACTVS_HBOND_DONOR>
3

> <PUBCHEM_CACTVS_ROTATABLE_BOND>
6

> <PUBCHEM_CACTVS_SUBSKEYS>
AAADceBzuAJEAAAAAAAAAAAAAAAAAWAAAAAsAAAAAAAAAAAB4AAAHgQQCCAADAjh3wavsZdMERikQxZnZICA8KlxCLgBWDQ4RBiAKIJgyUAEBAgsQAPISCKgAAAAAAAAAAAAAAAAAAAAAAAAAAAAAAAAAA==

> <PUBCHEM_IUPAC_OPENEYE_NAME>
2-[3-[(4-amino-2-methyl-pyrimidin-5-yl)methyl]-4-methyl-thiazol-3-ium-5-yl]ethyl dihydrogen phosphate chloride

> <PUBCHEM_IUPAC_CAS_NAME>
2-[3-[(4-amino-2-methyl-5-pyrimidinyl)methyl]-4-methyl-5-thiazol-3-iumyl]ethyl dihydrogen phosphate chloride

> <PUBCHEM_IUPAC_NAME>
2-[3-[(4-amino-2-methylpyrimidin-5-yl)methyl]-4-methyl-1,3-thiazol-3-ium-5-yl]ethyl dihydrogen phosphate chloride

> <PUBCHEM_IUPAC_SYSTEMATIC_NAME>
2-[3-[(4-azanyl-2-methyl-pyrimidin-5-yl)methyl]-4-methyl-1,3-thiazol-3-ium-5-yl]ethyl dihydrogen phosphate chloride

> <PUBCHEM_IUPAC_TRADITIONAL_NAME>
2-[3-[(4-amino-2-methyl-pyrimidin-5-yl)methyl]-4-methyl-thiazol-3-ium-5-yl]ethyl dihydrogen phosphate chloride

> <PUBCHEM_IUPAC_INCHI>
InChI=1S/C12H17N4O4PS.ClH/c1-8-11(3-4-20-21(17,18)19)22-7-16(8)6-10-5-14-9(2)15-12(10)13;/h5,7H,3-4,6H2,1-2H3,(H3-,13,14,15,17,18,19);1H

> <PUBCHEM_IUPAC_INCHIKEY>
GUGWNSHJDUEHNJ-UHFFFAOYSA-N

> <PUBCHEM_EXACT_MASS>
380.04749

> <PUBCHEM_MOLECULAR_FORMULA>
C12H18ClN4O4PS

> <PUBCHEM_MOLECULAR_WEIGHT>
380.787482

> <PUBCHEM_OPENEYE_CAN_SMILES>
CC1=C(SC=[N+]1CC2=CN=C(N=C2N)C)CCOP(=O)(O)O.[Cl-]

> <PUBCHEM_OPENEYE_ISO_SMILES>
CC1=C(SC=[N+]1CC2=CN=C(N=C2N)C)CCOP(=O)(O)O.[Cl-]

> <PUBCHEM_CACTVS_TPSA>
151

> <PUBCHEM_MONOISOTOPIC_WEIGHT>
380.04749

> <PUBCHEM_TOTAL_CHARGE>
0

> <PUBCHEM_HEAVY_ATOM_COUNT>
23

> <PUBCHEM_ATOM_DEF_STEREO_COUNT>
0

> <PUBCHEM_ATOM_UDEF_STEREO_COUNT>
0

> <PUBCHEM_BOND_DEF_STEREO_COUNT>
0

> <PUBCHEM_BOND_UDEF_STEREO_COUNT>
0

> <PUBCHEM_ISOTOPIC_ATOM_COUNT>
0

> <PUBCHEM_COMPONENT_COUNT>
2

> <PUBCHEM_CACTVS_TAUTO_COUNT>
3

> <PUBCHEM_COORDINATE_TYPE>
1
5
255

> <PUBCHEM_BONDANNOTATIONS>
10  21  8
10  22  8
12  13  8
17  20  8
17  21  8
2  13  8
2  16  8
8  12  8
8  16  8
9  20  8
9  22  8

$$$$

