10266
  -OEChem-06261204243D

 27 26  0     1  0  0  0  0  0999 V2000
   -0.6179   -0.9146    1.4702 O   0  0  0  0  0  0  0  0  0  0  0  0
    0.8249    0.6262   -1.5366 O   0  0  0  0  0  0  0  0  0  0  0  0
   -1.8784    1.4456    0.4916 O   0  0  0  0  0  0  0  0  0  0  0  0
    2.0388   -1.7680   -0.5561 O   0  0  0  0  0  0  0  0  0  0  0  0
    3.3644    1.3900    0.6993 O   0  0  0  0  0  0  0  0  0  0  0  0
   -4.3021    0.1925   -0.3508 N   0  0  0  0  0  0  0  0  0  0  0  0
   -0.5593   -0.5450    0.0936 C   0  0  2  0  0  0  0  0  0  0  0  0
    0.7461    0.2452   -0.1642 C   0  0  1  0  0  0  0  0  0  0  0  0
   -1.8379    0.2416   -0.2710 C   0  0  1  0  0  0  0  0  0  0  0  0
    2.0184   -0.5542    0.1922 C   0  0  2  0  0  0  0  0  0  0  0  0
   -3.1103   -0.5691    0.0178 C   0  0  0  0  0  0  0  0  0  0  0  0
    3.3133    0.2098   -0.0859 C   0  0  0  0  0  0  0  0  0  0  0  0
   -0.5542   -1.4681   -0.4978 H   0  0  0  0  0  0  0  0  0  0  0  0
    0.7387    1.1646    0.4325 H   0  0  0  0  0  0  0  0  0  0  0  0
   -1.8082    0.5221   -1.3302 H   0  0  0  0  0  0  0  0  0  0  0  0
    1.9795   -0.8175    1.2560 H   0  0  0  0  0  0  0  0  0  0  0  0
   -3.1861   -0.8040    1.0848 H   0  0  0  0  0  0  0  0  0  0  0  0
   -3.0936   -1.5119   -0.5393 H   0  0  0  0  0  0  0  0  0  0  0  0
    3.4013    0.4827   -1.1426 H   0  0  0  0  0  0  0  0  0  0  0  0
    4.1870   -0.4074    0.1510 H   0  0  0  0  0  0  0  0  0  0  0  0
   -0.5189   -0.1077    2.0030 H   0  0  0  0  0  0  0  0  0  0  0  0
    0.8408   -0.1884   -2.0677 H   0  0  0  0  0  0  0  0  0  0  0  0
   -2.0073    1.2085    1.4254 H   0  0  0  0  0  0  0  0  0  0  0  0
    2.8218   -2.2725   -0.2770 H   0  0  0  0  0  0  0  0  0  0  0  0
   -5.1294   -0.3839   -0.2026 H   0  0  0  0  0  0  0  0  0  0  0  0
   -4.2769    0.4053   -1.3472 H   0  0  0  0  0  0  0  0  0  0  0  0
    3.3121    1.1240    1.6331 H   0  0  0  0  0  0  0  0  0  0  0  0
  1  7  1  0  0  0  0
  1 21  1  0  0  0  0
  2  8  1  0  0  0  0
  2 22  1  0  0  0  0
  3  9  1  0  0  0  0
  3 23  1  0  0  0  0
  4 10  1  0  0  0  0
  4 24  1  0  0  0  0
  5 12  1  0  0  0  0
  5 27  1  0  0  0  0
  6 11  1  0  0  0  0
  6 25  1  0  0  0  0
  6 26  1  0  0  0  0
  7  8  1  0  0  0  0
  7  9  1  0  0  0  0
  7 13  1  0  0  0  0
  8 10  1  0  0  0  0
  8 14  1  0  0  0  0
  9 11  1  0  0  0  0
  9 15  1  0  0  0  0
 10 12  1  0  0  0  0
 10 16  1  0  0  0  0
 11 17  1  0  0  0  0
 11 18  1  0  0  0  0
 12 19  1  0  0  0  0
 12 20  1  0  0  0  0
M  END
> <PUBCHEM_COMPOUND_CID>
10266

> <PUBCHEM_CONFORMER_RMSD>
0.6

> <PUBCHEM_CONFORMER_DIVERSEORDER>
14
186
38
309
315
192
281
292
232
262
108
6
68
250
56
146
1
332
203
50
284
263
143
61
161
41
277
144
39
252
302
323
213
317
273
257
156
159
306
59
225
270
255
70
244
90
214
241
298
67
169
328
120
76
267
218
316
310
127
84
164
287
2
15
207
119
26
34
261
300
114
212
264
258
199
150
314
322
227
333
3
268
17
178
219
51
330
65
288
216
107
321
162
55
9
237
97
111
74
245
329
254
12
240
251
152
201
145
167
265
176
291
308
49
100
325
269
327
4
37
83
230
248
113
36
226
279
98
73
188
117
88
11
171
20
195
8
260
189
86
217
200
324
274
21
247
64
85
253
166
163
105
280
294
206
58
286
272
158
129
271
313
147
72
92
106
231
234
191
187
172
239
233
285
190
173
99
228
94
77
204
5
205
278
153
318
60
116
170
29
326
319
118
160
168
24
307
242
222
249
210
283
71
224
174
181
43
52
312
220
40
276
235
80
236
194
209
33
66
63
293
151
42
296
133
137
303
154
275
149
136
182
148
211
289
141
27
229
238
123
44
32
138
299
215
125
10
87
221
243
295
93
109
266
256
197
13
311
122
110
69
301
104
96
223
198
31
290
132
140
89
62
134
155
48
30
297
175
282
130
184
7
91
157
305
179
45
185
128
81
331
180
208
35
202
47
334
75
53
177
23
124
183
103
18
320
135
196
115
28
57
131
112
101
16
259
22
193
126
102
165
139
79
121
95
46
142
54
25
304
78
19
82
246

> <PUBCHEM_MMFF94_PARTIAL_CHARGES>
19
1 -0.68
10 0.28
11 0.27
12 0.28
2 -0.68
21 0.4
22 0.4
23 0.4
24 0.4
25 0.36
26 0.36
27 0.4
3 -0.68
4 -0.68
5 -0.68
6 -0.99
7 0.28
8 0.28
9 0.28

> <PUBCHEM_EFFECTIVE_ROTOR_COUNT>
5

> <PUBCHEM_PHARMACOPHORE_FEATURES>
12
1 1 acceptor
1 1 donor
1 2 acceptor
1 2 donor
1 3 acceptor
1 3 donor
1 4 acceptor
1 4 donor
1 5 acceptor
1 5 donor
1 6 cation
1 6 donor

> <PUBCHEM_HEAVY_ATOM_COUNT>
12

> <PUBCHEM_ATOM_DEF_STEREO_COUNT>
0

> <PUBCHEM_ATOM_UDEF_STEREO_COUNT>
4

> <PUBCHEM_BOND_DEF_STEREO_COUNT>
0

> <PUBCHEM_BOND_UDEF_STEREO_COUNT>
0

> <PUBCHEM_ISOTOPIC_ATOM_COUNT>
0

> <PUBCHEM_COMPONENT_COUNT>
1

> <PUBCHEM_CACTVS_TAUTO_COUNT>
1

> <PUBCHEM_CONFORMER_ID>
0000281A0000000E

> <PUBCHEM_MMFF94_ENERGY>
22.6656

> <PUBCHEM_FEATURE_SELFOVERLAP>
60.907

> <PUBCHEM_SHAPE_FINGERPRINT>
10130415 120 13973968713689596828
10219947 1 17775286062533064076
11062470 55 18413673495677125167
12932764 1 18114169873939742054
14325111 11 18408885174156882951
14344429 50 16128651929790315134
14993402 34 17275099535454726710
15310529 11 17894634785405356287
15775835 57 17822010878375558038
16945 1 17060044982372839227
18186145 218 18130504240462793383
18511873 20 12463577282974121865
20201158 50 18413106151893162242
20645477 70 18261677090079926183
23402539 116 18200888291645521983
3248919 1 17917134057347628623
5084963 1 18131346444878944157

> <PUBCHEM_SHAPE_MULTIPOLES>
212.63
6.12
1.25
0.97
2.17
0.06
-0.02
-0.91
-0.02
-0.52
0.09
-0.15
0
0.3

> <PUBCHEM_SHAPE_SELFOVERLAP>
397.919

> <PUBCHEM_SHAPE_VOLUME>
132.3

> <PUBCHEM_COORDINATE_TYPE>
2
5
10

$$$$

