11497
  -OEChem-06261205453D

 19 19  0     0  0  0  0  0  0999 V2000
   -3.8453    1.7430   -0.3102 Cl  0  0  0  0  0  0  0  0  0  0  0  0
    0.9474    0.3005    0.6079 O   0  0  0  0  0  0  0  0  0  0  0  0
    4.2283   -0.5664   -0.5560 O   0  0  0  0  0  0  0  0  0  0  0  0
    3.3408    1.4546    0.0054 O   0  0  0  0  0  0  0  0  0  0  0  0
   -0.3339   -0.0633    0.3282 C   0  0  0  0  0  0  0  0  0  0  0  0
   -1.3181    0.9126    0.1706 C   0  0  0  0  0  0  0  0  0  0  0  0
   -0.6630   -1.4127    0.1997 C   0  0  0  0  0  0  0  0  0  0  0  0
    1.9842   -0.5571    0.1332 C   0  0  0  0  0  0  0  0  0  0  0  0
   -2.6311    0.5391   -0.1155 C   0  0  0  0  0  0  0  0  0  0  0  0
   -1.9761   -1.7862   -0.0862 C   0  0  0  0  0  0  0  0  0  0  0  0
   -2.9601   -0.8103   -0.2439 C   0  0  0  0  0  0  0  0  0  0  0  0
    3.2271    0.2461   -0.1332 C   0  0  0  0  0  0  0  0  0  0  0  0
   -1.0529    1.9624    0.2723 H   0  0  0  0  0  0  0  0  0  0  0  0
    0.0670   -2.2041    0.3415 H   0  0  0  0  0  0  0  0  0  0  0  0
    2.2079   -1.3048    0.9012 H   0  0  0  0  0  0  0  0  0  0  0  0
    1.7123   -1.0298   -0.8188 H   0  0  0  0  0  0  0  0  0  0  0  0
   -2.2341   -2.8371   -0.1801 H   0  0  0  0  0  0  0  0  0  0  0  0
   -3.9795   -1.1161   -0.4653 H   0  0  0  0  0  0  0  0  0  0  0  0
    5.0531   -0.0672   -0.7370 H   0  0  0  0  0  0  0  0  0  0  0  0
  1  9  1  0  0  0  0
  2  5  1  0  0  0  0
  2  8  1  0  0  0  0
  3 12  1  0  0  0  0
  3 19  1  0  0  0  0
  4 12  2  0  0  0  0
  5  6  2  0  0  0  0
  5  7  1  0  0  0  0
  6  9  1  0  0  0  0
  6 13  1  0  0  0  0
  7 10  2  0  0  0  0
  7 14  1  0  0  0  0
  8 12  1  0  0  0  0
  8 15  1  0  0  0  0
  8 16  1  0  0  0  0
  9 11  2  0  0  0  0
 10 11  1  0  0  0  0
 10 17  1  0  0  0  0
 11 18  1  0  0  0  0
M  END
> <PUBCHEM_COMPOUND_CID>
11497

> <PUBCHEM_CONFORMER_RMSD>
0.6

> <PUBCHEM_CONFORMER_DIVERSEORDER>
1
12
7
14
4
19
5
24
3
8
23
9
11
2
13
6
10
22
21
20
18
15
16
17

> <PUBCHEM_MMFF94_PARTIAL_CHARGES>
17
1 -0.18
10 -0.15
11 -0.15
12 0.66
13 0.15
14 0.15
17 0.15
18 0.15
19 0.5
2 -0.36
3 -0.65
4 -0.57
5 0.08
6 -0.15
7 -0.15
8 0.34
9 0.18

> <PUBCHEM_EFFECTIVE_ROTOR_COUNT>
3

> <PUBCHEM_PHARMACOPHORE_FEATURES>
5
1 2 acceptor
1 3 acceptor
1 4 acceptor
3 3 4 12 anion
6 5 6 7 9 10 11 rings

> <PUBCHEM_HEAVY_ATOM_COUNT>
12

> <PUBCHEM_ATOM_DEF_STEREO_COUNT>
0

> <PUBCHEM_ATOM_UDEF_STEREO_COUNT>
0

> <PUBCHEM_BOND_DEF_STEREO_COUNT>
0

> <PUBCHEM_BOND_UDEF_STEREO_COUNT>
0

> <PUBCHEM_ISOTOPIC_ATOM_COUNT>
0

> <PUBCHEM_COMPONENT_COUNT>
1

> <PUBCHEM_CACTVS_TAUTO_COUNT>
1

> <PUBCHEM_CONFORMER_ID>
00002CE900000001

> <PUBCHEM_MMFF94_ENERGY>
28.9763

> <PUBCHEM_FEATURE_SELFOVERLAP>
25.434

> <PUBCHEM_SHAPE_FINGERPRINT>
10608611 8 18336268942328926064
10726558 24 18336264664757465231
12138202 97 18259708912794794583
12932764 1 17560812038769141448
13024252 1 17846780676859027571
14325111 11 18411139134165057840
15775835 57 18202001074706307793
18186145 218 18412267258997049404
200 152 16081089311430082366
20201158 50 17967809474825679110
20279233 1 17022910042702873538
20645477 56 18410858745836574905
20645477 70 17313379054683218710
20653085 51 18343015588536702033
20871999 31 18335710403596723967
23402539 116 18334304196575198436
23402655 69 18409728482675385348
23559900 14 18259988193533528266
2748010 2 17689453593897333955
3248919 1 17313092064831206442
6333449 129 18408604751542150839
93112 12 18408884040449092676

> <PUBCHEM_SHAPE_MULTIPOLES>
231.22
7.1
1.7
0.67
4.94
0.08
0
-2.35
1.33
-1.25
0.07
0.01
0
0.14

> <PUBCHEM_SHAPE_SELFOVERLAP>
468.284

> <PUBCHEM_SHAPE_VOLUME>
135.5

> <PUBCHEM_COORDINATE_TYPE>
2
5
10

$$$$

