17396053
  -OEChem-06241222543D

 44 47  0     0  0  0  0  0  0999 V2000
    3.5062   -2.3863    1.1271 O   0  5  0  0  0  0  0  0  0  0  0  0
    4.2318   -2.2590   -0.9409 O   0  0  0  0  0  0  0  0  0  0  0  0
   -0.5138    0.0720   -1.1830 N   0  0  0  0  0  0  0  0  0  0  0  0
    2.1938    0.3854   -0.3284 N   0  0  0  0  0  0  0  0  0  0  0  0
   -4.8081    0.5222   -0.2804 N   0  0  0  0  0  0  0  0  0  0  0  0
   -3.3079   -1.0970    0.0808 N   0  0  0  0  0  0  0  0  0  0  0  0
    4.0233   -1.7447    0.1828 N   0  3  0  0  0  0  0  0  0  0  0  0
    0.5726    0.1451   -2.1674 C   0  0  0  0  0  0  0  0  0  0  0  0
   -0.0387   -0.5932    0.0366 C   0  0  0  0  0  0  0  0  0  0  0  0
    1.7620    0.9358   -1.6168 C   0  0  0  0  0  0  0  0  0  0  0  0
    1.1294    0.1738    0.6608 C   0  0  0  0  0  0  0  0  0  0  0  0
   -1.6641   -0.6389   -1.7399 C   0  0  0  0  0  0  0  0  0  0  0  0
    3.4851    0.6498    0.1416 C   0  0  0  0  0  0  0  0  0  0  0  0
   -2.9298   -0.3316   -0.9933 C   0  0  0  0  0  0  0  0  0  0  0  0
    4.3860   -0.3848    0.3938 C   0  0  0  0  0  0  0  0  0  0  0  0
    3.8660    1.9742    0.3568 C   0  0  0  0  0  0  0  0  0  0  0  0
   -3.8368    0.6728   -1.2366 C   0  0  0  0  0  0  0  0  0  0  0  0
   -4.4407   -0.5709    0.4998 C   0  0  0  0  0  0  0  0  0  0  0  0
    5.6678   -0.0949    0.8612 C   0  0  0  0  0  0  0  0  0  0  0  0
    5.1478    2.2642    0.8241 C   0  0  0  0  0  0  0  0  0  0  0  0
    6.0487    1.2296    1.0764 C   0  0  0  0  0  0  0  0  0  0  0  0
   -5.9623    1.2700   -0.0642 C   0  0  0  0  0  0  0  0  0  0  0  0
   -5.3111   -0.9224    1.5732 C   0  0  0  0  0  0  0  0  0  0  0  0
   -6.7775    0.9321    0.9481 C   0  0  0  0  0  0  0  0  0  0  0  0
   -6.4297   -0.2032    1.7877 C   0  0  0  0  0  0  0  0  0  0  0  0
    0.9019   -0.8626   -2.4550 H   0  0  0  0  0  0  0  0  0  0  0  0
    0.2255    0.6480   -3.0782 H   0  0  0  0  0  0  0  0  0  0  0  0
    0.2771   -1.6231   -0.1793 H   0  0  0  0  0  0  0  0  0  0  0  0
   -0.8309   -0.6466    0.7911 H   0  0  0  0  0  0  0  0  0  0  0  0
    1.4857    1.9909   -1.4963 H   0  0  0  0  0  0  0  0  0  0  0  0
    2.5819    0.8880   -2.3440 H   0  0  0  0  0  0  0  0  0  0  0  0
    1.5033   -0.3939    1.5212 H   0  0  0  0  0  0  0  0  0  0  0  0
    0.7848    1.1458    1.0371 H   0  0  0  0  0  0  0  0  0  0  0  0
   -1.4993   -1.7239   -1.7722 H   0  0  0  0  0  0  0  0  0  0  0  0
   -1.8314   -0.3264   -2.7799 H   0  0  0  0  0  0  0  0  0  0  0  0
    3.1759    2.7936    0.1720 H   0  0  0  0  0  0  0  0  0  0  0  0
   -3.8758    1.4563   -1.9813 H   0  0  0  0  0  0  0  0  0  0  0  0
    6.3812   -0.8904    1.0625 H   0  0  0  0  0  0  0  0  0  0  0  0
    5.4441    3.2953    0.9931 H   0  0  0  0  0  0  0  0  0  0  0  0
    7.0467    1.4554    1.4406 H   0  0  0  0  0  0  0  0  0  0  0  0
   -6.1609    2.1033   -0.7271 H   0  0  0  0  0  0  0  0  0  0  0  0
   -5.0620   -1.7669    2.2059 H   0  0  0  0  0  0  0  0  0  0  0  0
   -7.6871    1.4814    1.1580 H   0  0  0  0  0  0  0  0  0  0  0  0
   -7.1039   -0.4552    2.5990 H   0  0  0  0  0  0  0  0  0  0  0  0
  1  7  1  0  0  0  0
  2  7  2  0  0  0  0
  3  8  1  0  0  0  0
  3  9  1  0  0  0  0
  3 12  1  0  0  0  0
  4 10  1  0  0  0  0
  4 11  1  0  0  0  0
  4 13  1  0  0  0  0
  5 17  1  0  0  0  0
  5 18  1  0  0  0  0
  5 22  1  0  0  0  0
  6 14  1  0  0  0  0
  6 18  2  0  0  0  0
  7 15  1  0  0  0  0
  8 10  1  0  0  0  0
  8 26  1  0  0  0  0
  8 27  1  0  0  0  0
  9 11  1  0  0  0  0
  9 28  1  0  0  0  0
  9 29  1  0  0  0  0
 10 30  1  0  0  0  0
 10 31  1  0  0  0  0
 11 32  1  0  0  0  0
 11 33  1  0  0  0  0
 12 14  1  0  0  0  0
 12 34  1  0  0  0  0
 12 35  1  0  0  0  0
 13 15  1  0  0  0  0
 13 16  2  0  0  0  0
 14 17  2  0  0  0  0
 15 19  2  0  0  0  0
 16 20  1  0  0  0  0
 16 36  1  0  0  0  0
 17 37  1  0  0  0  0
 18 23  1  0  0  0  0
 19 21  1  0  0  0  0
 19 38  1  0  0  0  0
 20 21  2  0  0  0  0
 20 39  1  0  0  0  0
 21 40  1  0  0  0  0
 22 24  2  0  0  0  0
 22 41  1  0  0  0  0
 23 25  2  0  0  0  0
 23 42  1  0  0  0  0
 24 25  1  0  0  0  0
 24 43  1  0  0  0  0
 25 44  1  0  0  0  0
M  CHG  2   1  -1   7   1
M  END
> <PUBCHEM_COMPOUND_CID>
17396053

> <PUBCHEM_CONFORMER_RMSD>
0.8

> <PUBCHEM_CONFORMER_DIVERSEORDER>
1
54
39
22
31
14
53
36
58
67
35
73
43
64
45
57
74
19
62
13
60
50
37
30
12
69
49
15
23
46
51
44
48
42
63
5
10
34
66
6
70
9
24
33
72
55
61
59
3
18
38
29
11
71
32
17
47
20
16
25
40
7
28
68
2
27
41
8
65
52
21
26
4
56

> <PUBCHEM_MMFF94_PARTIAL_CHARGES>
34
1 -0.52
10 0.37
11 0.37
12 0.45
13 0.1
14 0.05
15 0.13
16 -0.15
17 -0.3
18 0.14
19 -0.15
2 -0.52
20 -0.15
21 -0.15
22 -0.18
23 -0.11
24 -0.15
25 -0.15
3 -0.81
36 0.15
37 0.15
38 0.15
39 0.15
4 -0.84
40 0.15
41 0.15
42 0.15
43 0.15
44 0.15
5 0.33
6 -0.57
7 0.91
8 0.27
9 0.27

> <PUBCHEM_EFFECTIVE_ROTOR_COUNT>
5.2

> <PUBCHEM_PHARMACOPHORE_FEATURES>
10
1 1 acceptor
1 1 anion
1 2 acceptor
1 3 cation
1 4 cation
3 5 6 18 cation
5 5 6 14 17 18 rings
6 13 15 16 19 20 21 rings
6 3 4 8 9 10 11 rings
6 5 18 22 23 24 25 rings

> <PUBCHEM_HEAVY_ATOM_COUNT>
25

> <PUBCHEM_ATOM_DEF_STEREO_COUNT>
0

> <PUBCHEM_ATOM_UDEF_STEREO_COUNT>
0

> <PUBCHEM_BOND_DEF_STEREO_COUNT>
0

> <PUBCHEM_BOND_UDEF_STEREO_COUNT>
0

> <PUBCHEM_ISOTOPIC_ATOM_COUNT>
0

> <PUBCHEM_COMPONENT_COUNT>
1

> <PUBCHEM_CACTVS_TAUTO_COUNT>
1

> <PUBCHEM_CONFORMER_ID>
0109715500000001

> <PUBCHEM_MMFF94_ENERGY>
79.2107

> <PUBCHEM_FEATURE_SELFOVERLAP>
50.943

> <PUBCHEM_SHAPE_FINGERPRINT>
10 15 18272933795572311033
10319926 262 17846207887409740469
10554248 39 16950567730745736917
10670039 82 14996549694892890320
10693767 8 8862400707990348292
10906281 52 16660631930549378129
11089746 13 5400802743565519382
11963148 33 15051741866992568249
12035758 1 17702961244795258080
12236239 1 17603873273715684230
12596602 18 18260545606778726947
12730499 353 18201722856174761314
12778500 126 18335135435892447784
12788726 201 16515675667333155851
13533116 47 18409726304968814546
13583140 156 18115876195800987951
13675066 3 18201726149612778853
13785724 45 17389369730726667262
13862211 1 14908186334756686905
14251764 18 17749393637810106381
14341114 176 18413668028336946029
14528608 73 5978387205426906021
14849402 71 17488171592011126716
15142383 8 18409733997049558832
15183329 4 15719392841555545201
15188451 53 17417811674481014683
15238133 3 16732991899339193722
15348495 7 18200591398037003297
15799311 1 14979949311423804729
1601671 61 16298385734567157392
16994733 274 16589730950542051232
17780758 139 17275388694919454501
17844677 252 18342457066726432141
1813 80 15482669091490842415
18222031 100 14908180833003580471
20281389 69 17821447963293818497
21298829 104 15719378569648356889
21315759 148 18131630097419872459
21421861 104 18187653543940406702
21623969 137 18202003222464425114
22122407 14 17968088682075748809
22956985 138 14690632690856168064
23081809 10 16877950446871318151
2748736 6 16515678983739030425
2767999 5 16370725941827146801
2838139 119 15574714711973803585
312425 54 18131346423836702851
329604 57 12679460897898465215
3383291 50 16916493758954912507
351380 3 14764348228301578193
397830 11 18200872868760827569
4072396 5 16081090423979716646
4340502 62 18412829066963936930
439807 62 12463576179695125561
465052 167 15195284222511005392
5104073 3 17987809638315879377
6328613 192 16661213537972940632
6700243 42 15265936773759886462
7495541 125 14261352440323832724
8272917 22 18113621188385217830

> <PUBCHEM_SHAPE_MULTIPOLES>
477.84
18.1
1.8
1.7
11.34
0.16
-0.4
-5.18
9.1
-2.84
0.31
1.18
0.22
0.26

> <PUBCHEM_SHAPE_SELFOVERLAP>
1039.434

> <PUBCHEM_SHAPE_VOLUME>
262

> <PUBCHEM_COORDINATE_TYPE>
2
5
10

$$$$

