14334
  -OEChem-06241222432D

 30 31  0     1  0  0  0  0  0999 V2000
    6.0812    0.9877    0.0000 O   0  0  0  0  0  0  0  0  0  0  0  0
    2.5369    1.1830    0.0000 O   0  0  0  0  0  0  0  0  0  0  0  0
    7.6648    0.1830    0.0000 O   0  0  0  0  0  0  0  0  0  0  0  0
    4.2690   -0.8170    0.0000 C   0  0  0  0  0  0  0  0  0  0  0  0
    5.1350    0.6830    0.0000 C   0  0  3  0  0  0  0  0  0  0  0  0
    5.1350   -0.3170    0.0000 C   0  0  0  0  0  0  0  0  0  0  0  0
    3.4030   -0.3170    0.0000 C   0  0  0  0  0  0  0  0  0  0  0  0
    4.2690    1.1830    0.0000 C   0  0  0  0  0  0  0  0  0  0  0  0
    3.4030    0.6830    0.0000 C   0  0  3  0  0  0  0  0  0  0  0  0
    3.7690   -1.6830    0.0000 C   0  0  0  0  0  0  0  0  0  0  0  0
    4.7690   -1.6830    0.0000 C   0  0  0  0  0  0  0  0  0  0  0  0
    5.1350    1.6830    0.0000 C   0  0  0  0  0  0  0  0  0  0  0  0
    6.0812   -0.6217    0.0000 C   0  0  0  0  0  0  0  0  0  0  0  0
    6.6648    0.1830    0.0000 C   0  0  0  0  0  0  0  0  0  0  0  0
    2.7924   -0.2093    0.0000 H   0  0  0  0  0  0  0  0  0  0  0  0
    3.1909   -0.8996    0.0000 H   0  0  0  0  0  0  0  0  0  0  0  0
    4.6675    1.6580    0.0000 H   0  0  0  0  0  0  0  0  0  0  0  0
    3.8705    1.6580    0.0000 H   0  0  0  0  0  0  0  0  0  0  0  0
    3.4030    1.3030    0.0000 H   0  0  0  0  0  0  0  0  0  0  0  0
    3.2320   -1.3730    0.0000 H   0  0  0  0  0  0  0  0  0  0  0  0
    3.4590   -2.2200    0.0000 H   0  0  0  0  0  0  0  0  0  0  0  0
    4.3059   -1.9930    0.0000 H   0  0  0  0  0  0  0  0  0  0  0  0
    4.2320   -1.9930    0.0000 H   0  0  0  0  0  0  0  0  0  0  0  0
    5.0790   -2.2200    0.0000 H   0  0  0  0  0  0  0  0  0  0  0  0
    5.3059   -1.3730    0.0000 H   0  0  0  0  0  0  0  0  0  0  0  0
    5.7550    1.6830    0.0000 H   0  0  0  0  0  0  0  0  0  0  0  0
    5.1350    2.3030    0.0000 H   0  0  0  0  0  0  0  0  0  0  0  0
    4.5150    1.6830    0.0000 H   0  0  0  0  0  0  0  0  0  0  0  0
    6.2738   -1.2110    0.0000 H   0  0  0  0  0  0  0  0  0  0  0  0
    2.0000    0.8730    0.0000 H   0  0  0  0  0  0  0  0  0  0  0  0
  1  5  1  0  0  0  0
  1 14  1  0  0  0  0
  2  9  1  0  0  0  0
  2 30  1  0  0  0  0
  3 14  2  0  0  0  0
  4  6  1  0  0  0  0
  4  7  1  0  0  0  0
  4 10  1  0  0  0  0
  4 11  1  0  0  0  0
  5  6  1  0  0  0  0
  5  8  1  0  0  0  0
  5 12  1  0  0  0  0
  6 13  2  0  0  0  0
  7  9  1  0  0  0  0
  7 15  1  0  0  0  0
  7 16  1  0  0  0  0
  8  9  1  0  0  0  0
  8 17  1  0  0  0  0
  8 18  1  0  0  0  0
  9 19  1  0  0  0  0
 10 20  1  0  0  0  0
 10 21  1  0  0  0  0
 10 22  1  0  0  0  0
 11 23  1  0  0  0  0
 11 24  1  0  0  0  0
 11 25  1  0  0  0  0
 12 26  1  0  0  0  0
 12 27  1  0  0  0  0
 12 28  1  0  0  0  0
 13 14  1  0  0  0  0
 13 29  1  0  0  0  0
M  END
> <PUBCHEM_COMPOUND_CID>
14334

> <PUBCHEM_COMPOUND_CANONICALIZED>
1

> <PUBCHEM_CACTVS_COMPLEXITY>
317

> <PUBCHEM_CACTVS_HBOND_ACCEPTOR>
3

> <PUBCHEM_CACTVS_HBOND_DONOR>
1

> <PUBCHEM_CACTVS_ROTATABLE_BOND>
0

> <PUBCHEM_CACTVS_SUBSKEYS>
AAADceBwMAAAAAAAAAAAAAAAAAAAAQAAAAAwAAAAAAAAAEAAAAAAGgAACAAADlSggAICCAAABgCIAiDSCAAAAAAgAAAACAAAAEgAFAIAIAACUAAFgAAIIQOA4FwPAAAAAAAAAAAAAAYQAAAAAAAAAAAAAA==

> <PUBCHEM_IUPAC_OPENEYE_NAME>
6-hydroxy-4,4,7a-trimethyl-6,7-dihydro-5H-benzofuran-2-one

> <PUBCHEM_IUPAC_CAS_NAME>
6-hydroxy-4,4,7a-trimethyl-6,7-dihydro-5H-benzofuran-2-one

> <PUBCHEM_IUPAC_NAME>
6-hydroxy-4,4,7a-trimethyl-6,7-dihydro-5H-1-benzofuran-2-one

> <PUBCHEM_IUPAC_SYSTEMATIC_NAME>
4,4,7a-trimethyl-6-oxidanyl-6,7-dihydro-5H-1-benzofuran-2-one

> <PUBCHEM_IUPAC_TRADITIONAL_NAME>
6-hydroxy-4,4,7a-trimethyl-6,7-dihydro-5H-benzofuran-2-one

> <PUBCHEM_IUPAC_INCHI>
InChI=1S/C11H16O3/c1-10(2)5-7(12)6-11(3)8(10)4-9(13)14-11/h4,7,12H,5-6H2,1-3H3

> <PUBCHEM_IUPAC_INCHIKEY>
XEVQXKKKAVVSMW-UHFFFAOYSA-N

> <PUBCHEM_XLOGP3_AA>
1

> <PUBCHEM_EXACT_MASS>
196.109944

> <PUBCHEM_MOLECULAR_FORMULA>
C11H16O3

> <PUBCHEM_MOLECULAR_WEIGHT>
196.24294

> <PUBCHEM_OPENEYE_CAN_SMILES>
CC1(CC(CC2(C1=CC(=O)O2)C)O)C

> <PUBCHEM_OPENEYE_ISO_SMILES>
CC1(CC(CC2(C1=CC(=O)O2)C)O)C

> <PUBCHEM_CACTVS_TPSA>
46.5

> <PUBCHEM_MONOISOTOPIC_WEIGHT>
196.109944

> <PUBCHEM_TOTAL_CHARGE>
0

> <PUBCHEM_HEAVY_ATOM_COUNT>
14

> <PUBCHEM_ATOM_DEF_STEREO_COUNT>
0

> <PUBCHEM_ATOM_UDEF_STEREO_COUNT>
2

> <PUBCHEM_BOND_DEF_STEREO_COUNT>
0

> <PUBCHEM_BOND_UDEF_STEREO_COUNT>
0

> <PUBCHEM_ISOTOPIC_ATOM_COUNT>
0

> <PUBCHEM_COMPONENT_COUNT>
1

> <PUBCHEM_CACTVS_TAUTO_COUNT>
1

> <PUBCHEM_COORDINATE_TYPE>
1
5
255

> <PUBCHEM_BONDANNOTATIONS>
9  2  3
5  12  3

$$$$

