17396419
  -OEChem-06241222562D

 45 46  0     1  0  0  0  0  0999 V2000
    2.0000   -2.5000    0.0000 Cl  0  0  0  0  0  0  0  0  0  0  0  0
    5.4641   -2.5000    0.0000 Cl  0  0  0  0  0  0  0  0  0  0  0  0
    3.7320   -1.5000    0.0000 S   0  0  0  0  0  0  0  0  0  0  0  0
    3.7320    1.5000    0.0000 O   0  0  0  0  0  0  0  0  0  0  0  0
    4.7320   -1.5000    0.0000 O   0  0  0  0  0  0  0  0  0  0  0  0
    2.7320   -1.5000    0.0000 O   0  0  0  0  0  0  0  0  0  0  0  0
    3.7320   -0.5000    0.0000 N   0  0  0  0  0  0  0  0  0  0  0  0
    5.4641    1.5000    0.0000 N   0  0  0  0  0  0  0  0  0  0  0  0
    6.3301    3.0000    0.0000 N   0  0  0  0  0  0  0  0  0  0  0  0
    4.5981    0.0000    0.0000 C   0  0  3  0  0  0  0  0  0  0  0  0
    5.4641   -0.5000    0.0000 C   0  0  0  0  0  0  0  0  0  0  0  0
    6.3301    0.0000    0.0000 C   0  0  0  0  0  0  0  0  0  0  0  0
    5.4641   -1.5000    0.0000 C   0  0  0  0  0  0  0  0  0  0  0  0
    4.5981    1.0000    0.0000 C   0  0  0  0  0  0  0  0  0  0  0  0
    3.7320   -2.5000    0.0000 C   0  0  0  0  0  0  0  0  0  0  0  0
    2.8660   -3.0000    0.0000 C   0  0  0  0  0  0  0  0  0  0  0  0
    4.5981   -3.0000    0.0000 C   0  0  0  0  0  0  0  0  0  0  0  0
    5.4641    2.5000    0.0000 C   0  0  0  0  0  0  0  0  0  0  0  0
    2.8660   -4.0000    0.0000 C   0  0  0  0  0  0  0  0  0  0  0  0
    4.5981   -4.0000    0.0000 C   0  0  0  0  0  0  0  0  0  0  0  0
    4.5981    3.0000    0.0000 C   0  0  0  0  0  0  0  0  0  0  0  0
    3.7320   -4.5000    0.0000 C   0  0  0  0  0  0  0  0  0  0  0  0
    6.3301    4.0000    0.0000 C   0  0  0  0  0  0  0  0  0  0  0  0
    4.5981    4.0000    0.0000 C   0  0  0  0  0  0  0  0  0  0  0  0
    5.4641    4.5000    0.0000 C   0  0  0  0  0  0  0  0  0  0  0  0
    7.1962    4.5000    0.0000 C   0  0  0  0  0  0  0  0  0  0  0  0
    4.5981   -0.6200    0.0000 H   0  0  0  0  0  0  0  0  0  0  0  0
    5.4641    0.1200    0.0000 H   0  0  0  0  0  0  0  0  0  0  0  0
    3.1951   -0.1900    0.0000 H   0  0  0  0  0  0  0  0  0  0  0  0
    6.6401   -0.5369    0.0000 H   0  0  0  0  0  0  0  0  0  0  0  0
    6.8671    0.3100    0.0000 H   0  0  0  0  0  0  0  0  0  0  0  0
    6.0201    0.5369    0.0000 H   0  0  0  0  0  0  0  0  0  0  0  0
    4.8441   -1.5000    0.0000 H   0  0  0  0  0  0  0  0  0  0  0  0
    5.4641   -2.1200    0.0000 H   0  0  0  0  0  0  0  0  0  0  0  0
    6.0841   -1.5000    0.0000 H   0  0  0  0  0  0  0  0  0  0  0  0
    6.0010    1.1900    0.0000 H   0  0  0  0  0  0  0  0  0  0  0  0
    2.3291   -4.3100    0.0000 H   0  0  0  0  0  0  0  0  0  0  0  0
    5.1350   -4.3100    0.0000 H   0  0  0  0  0  0  0  0  0  0  0  0
    4.0611    2.6900    0.0000 H   0  0  0  0  0  0  0  0  0  0  0  0
    3.7320   -5.1200    0.0000 H   0  0  0  0  0  0  0  0  0  0  0  0
    4.0611    4.3100    0.0000 H   0  0  0  0  0  0  0  0  0  0  0  0
    5.4641    5.1200    0.0000 H   0  0  0  0  0  0  0  0  0  0  0  0
    7.5062    3.9631    0.0000 H   0  0  0  0  0  0  0  0  0  0  0  0
    7.7331    4.8100    0.0000 H   0  0  0  0  0  0  0  0  0  0  0  0
    6.8862    5.0369    0.0000 H   0  0  0  0  0  0  0  0  0  0  0  0
  1 16  1  0  0  0  0
  2 17  1  0  0  0  0
  3  5  2  0  0  0  0
  3  6  2  0  0  0  0
  3  7  1  0  0  0  0
  3 15  1  0  0  0  0
  4 14  2  0  0  0  0
  7 10  1  0  0  0  0
  7 29  1  0  0  0  0
  8 14  1  0  0  0  0
  8 18  1  0  0  0  0
  8 36  1  0  0  0  0
  9 18  1  0  0  0  0
  9 23  2  0  0  0  0
 10 11  1  0  0  0  0
 10 14  1  0  0  0  0
 10 27  1  0  0  0  0
 11 12  1  0  0  0  0
 11 13  1  0  0  0  0
 11 28  1  0  0  0  0
 12 30  1  0  0  0  0
 12 31  1  0  0  0  0
 12 32  1  0  0  0  0
 13 33  1  0  0  0  0
 13 34  1  0  0  0  0
 13 35  1  0  0  0  0
 15 16  2  0  0  0  0
 15 17  1  0  0  0  0
 16 19  1  0  0  0  0
 17 20  2  0  0  0  0
 18 21  2  0  0  0  0
 19 22  2  0  0  0  0
 19 37  1  0  0  0  0
 20 22  1  0  0  0  0
 20 38  1  0  0  0  0
 21 24  1  0  0  0  0
 21 39  1  0  0  0  0
 22 40  1  0  0  0  0
 23 25  1  0  0  0  0
 23 26  1  0  0  0  0
 24 25  2  0  0  0  0
 24 41  1  0  0  0  0
 25 42  1  0  0  0  0
 26 43  1  0  0  0  0
 26 44  1  0  0  0  0
 26 45  1  0  0  0  0
M  END
> <PUBCHEM_COMPOUND_CID>
17396419

> <PUBCHEM_COMPOUND_CANONICALIZED>
1

> <PUBCHEM_CACTVS_COMPLEXITY>
572

> <PUBCHEM_CACTVS_HBOND_ACCEPTOR>
5

> <PUBCHEM_CACTVS_HBOND_DONOR>
2

> <PUBCHEM_CACTVS_ROTATABLE_BOND>
6

> <PUBCHEM_CACTVS_SUBSKEYS>
AAADceB7MABGAAAAAAAAAAAAAAAAAAAAAAA8QAAAAAAAAAABwAAAHgYQQAAADSrB1iQzsZLIEAKoASdydHDCgDkhByAJmLGwZpiIYPLBm5GUIAholQLIyCcQAAAIAAAAAACAAIAAAAAAAQABAAAAAAAAAA==

> <PUBCHEM_IUPAC_OPENEYE_NAME>
2-[(2,6-dichlorophenyl)sulfonylamino]-3-methyl-N-(6-methyl-2-pyridyl)butanamide

> <PUBCHEM_IUPAC_CAS_NAME>
2-[(2,6-dichlorophenyl)sulfonylamino]-3-methyl-N-(6-methyl-2-pyridinyl)butanamide

> <PUBCHEM_IUPAC_NAME>
2-[(2,6-dichlorophenyl)sulfonylamino]-3-methyl-N-(6-methylpyridin-2-yl)butanamide

> <PUBCHEM_IUPAC_SYSTEMATIC_NAME>
2-[[2,6-bis(chloranyl)phenyl]sulfonylamino]-3-methyl-N-(6-methylpyridin-2-yl)butanamide

> <PUBCHEM_IUPAC_TRADITIONAL_NAME>
2-[(2,6-dichlorophenyl)sulfonylamino]-3-methyl-N-(6-methyl-2-pyridyl)butyramide

> <PUBCHEM_IUPAC_INCHI>
InChI=1S/C17H19Cl2N3O3S/c1-10(2)15(17(23)21-14-9-4-6-11(3)20-14)22-26(24,25)16-12(18)7-5-8-13(16)19/h4-10,15,22H,1-3H3,(H,20,21,23)

> <PUBCHEM_IUPAC_INCHIKEY>
WCYQGSAPNUCNJE-UHFFFAOYSA-N

> <PUBCHEM_XLOGP3_AA>
4.1

> <PUBCHEM_EXACT_MASS>
415.052418

> <PUBCHEM_MOLECULAR_FORMULA>
C17H19Cl2N3O3S

> <PUBCHEM_MOLECULAR_WEIGHT>
416.32206

> <PUBCHEM_OPENEYE_CAN_SMILES>
CC1=NC(=CC=C1)NC(=O)C(C(C)C)NS(=O)(=O)C2=C(C=CC=C2Cl)Cl

> <PUBCHEM_OPENEYE_ISO_SMILES>
CC1=NC(=CC=C1)NC(=O)C(C(C)C)NS(=O)(=O)C2=C(C=CC=C2Cl)Cl

> <PUBCHEM_CACTVS_TPSA>
96.5

> <PUBCHEM_MONOISOTOPIC_WEIGHT>
415.052418

> <PUBCHEM_TOTAL_CHARGE>
0

> <PUBCHEM_HEAVY_ATOM_COUNT>
26

> <PUBCHEM_ATOM_DEF_STEREO_COUNT>
0

> <PUBCHEM_ATOM_UDEF_STEREO_COUNT>
1

> <PUBCHEM_BOND_DEF_STEREO_COUNT>
0

> <PUBCHEM_BOND_UDEF_STEREO_COUNT>
0

> <PUBCHEM_ISOTOPIC_ATOM_COUNT>
0

> <PUBCHEM_COMPONENT_COUNT>
1

> <PUBCHEM_CACTVS_TAUTO_COUNT>
13

> <PUBCHEM_COORDINATE_TYPE>
1
5
255

> <PUBCHEM_BONDANNOTATIONS>
10  11  3
15  16  8
15  17  8
16  19  8
17  20  8
18  21  8
19  22  8
20  22  8
21  24  8
23  25  8
24  25  8
9  18  8
9  23  8

$$$$

