51090991
  -OEChem-06241223013D

 51 52  0     0  0  0  0  0  0999 V2000
    4.2070   -0.5500    1.6447 O   0  0  0  0  0  0  0  0  0  0  0  0
   -4.1512   -1.5587   -0.1046 O   0  0  0  0  0  0  0  0  0  0  0  0
   -1.0128   -0.7645   -0.2963 N   0  0  0  0  0  0  0  0  0  0  0  0
    2.6514   -0.9429   -0.0195 N   0  0  0  0  0  0  0  0  0  0  0  0
    1.6085   -1.4145    0.8636 C   0  0  0  0  0  0  0  0  0  0  0  0
    0.7468   -0.2551    1.3691 C   0  0  0  0  0  0  0  0  0  0  0  0
    0.7299   -2.4594    0.1717 C   0  0  0  0  0  0  0  0  0  0  0  0
   -0.1753    0.2973    0.2775 C   0  0  0  0  0  0  0  0  0  0  0  0
   -0.1913   -1.8333   -0.8800 C   0  0  0  0  0  0  0  0  0  0  0  0
   -1.9233   -0.2127   -1.2994 C   0  0  0  0  0  0  0  0  0  0  0  0
   -3.0819    0.5117   -0.6668 C   0  0  0  0  0  0  0  0  0  0  0  0
    3.8875   -0.5426    0.4575 C   0  0  0  0  0  0  0  0  0  0  0  0
   -4.1411   -0.1962   -0.0992 C   0  0  0  0  0  0  0  0  0  0  0  0
   -3.0882    1.9064   -0.6529 C   0  0  0  0  0  0  0  0  0  0  0  0
    4.8351   -0.0774   -0.6135 C   0  0  0  0  0  0  0  0  0  0  0  0
   -5.2068    0.4904    0.4825 C   0  0  0  0  0  0  0  0  0  0  0  0
   -4.1540    2.5933   -0.0713 C   0  0  0  0  0  0  0  0  0  0  0  0
   -5.2133    1.8854    0.4964 C   0  0  0  0  0  0  0  0  0  0  0  0
    4.7907    1.2361   -0.9071 C   0  0  0  0  0  0  0  0  0  0  0  0
    5.7011   -1.0852   -1.3100 C   0  0  0  0  0  0  0  0  0  0  0  0
    3.8985    2.2692   -0.2775 C   0  0  0  0  0  0  0  0  0  0  0  0
   -5.2735   -2.2004    0.4977 C   0  0  0  0  0  0  0  0  0  0  0  0
    4.5562    2.9031    0.9377 C   0  0  0  0  0  0  0  0  0  0  0  0
    2.0938   -1.8883    1.7258 H   0  0  0  0  0  0  0  0  0  0  0  0
    0.1313   -0.6075    2.2074 H   0  0  0  0  0  0  0  0  0  0  0  0
    1.3762    0.5542    1.7585 H   0  0  0  0  0  0  0  0  0  0  0  0
    1.3517   -3.2296   -0.3003 H   0  0  0  0  0  0  0  0  0  0  0  0
    0.1141   -2.9658    0.9267 H   0  0  0  0  0  0  0  0  0  0  0  0
   -0.7936    1.0698    0.7473 H   0  0  0  0  0  0  0  0  0  0  0  0
   -0.8404   -2.6281   -1.2681 H   0  0  0  0  0  0  0  0  0  0  0  0
    0.3972   -1.4578   -1.7268 H   0  0  0  0  0  0  0  0  0  0  0  0
    0.4239    0.7902   -0.4994 H   0  0  0  0  0  0  0  0  0  0  0  0
   -2.3487   -1.0154   -1.9181 H   0  0  0  0  0  0  0  0  0  0  0  0
   -1.3941    0.4372   -2.0102 H   0  0  0  0  0  0  0  0  0  0  0  0
    2.4537   -0.8608   -1.0127 H   0  0  0  0  0  0  0  0  0  0  0  0
   -2.2701    2.4719   -1.0912 H   0  0  0  0  0  0  0  0  0  0  0  0
   -6.0630    0.0091    0.9420 H   0  0  0  0  0  0  0  0  0  0  0  0
   -4.1590    3.6793   -0.0604 H   0  0  0  0  0  0  0  0  0  0  0  0
    5.4585    1.6103   -1.6812 H   0  0  0  0  0  0  0  0  0  0  0  0
   -6.0425    2.4213    0.9490 H   0  0  0  0  0  0  0  0  0  0  0  0
    5.0842   -1.8617   -1.7730 H   0  0  0  0  0  0  0  0  0  0  0  0
    6.3099   -0.6247   -2.0947 H   0  0  0  0  0  0  0  0  0  0  0  0
    6.3771   -1.5606   -0.5923 H   0  0  0  0  0  0  0  0  0  0  0  0
    2.9259    1.8529    0.0028 H   0  0  0  0  0  0  0  0  0  0  0  0
    3.6862    3.0443   -1.0236 H   0  0  0  0  0  0  0  0  0  0  0  0
   -5.3372   -1.9815    1.5691 H   0  0  0  0  0  0  0  0  0  0  0  0
   -6.2038   -1.9691   -0.0324 H   0  0  0  0  0  0  0  0  0  0  0  0
   -5.1153   -3.2799    0.4037 H   0  0  0  0  0  0  0  0  0  0  0  0
    3.9060    3.6788    1.3549 H   0  0  0  0  0  0  0  0  0  0  0  0
    5.5101    3.3714    0.6720 H   0  0  0  0  0  0  0  0  0  0  0  0
    4.7467    2.1668    1.7247 H   0  0  0  0  0  0  0  0  0  0  0  0
  1 12  2  0  0  0  0
  2 13  1  0  0  0  0
  2 22  1  0  0  0  0
  3  8  1  0  0  0  0
  3  9  1  0  0  0  0
  3 10  1  0  0  0  0
  4  5  1  0  0  0  0
  4 12  1  0  0  0  0
  4 35  1  0  0  0  0
  5  6  1  0  0  0  0
  5  7  1  0  0  0  0
  5 24  1  0  0  0  0
  6  8  1  0  0  0  0
  6 25  1  0  0  0  0
  6 26  1  0  0  0  0
  7  9  1  0  0  0  0
  7 27  1  0  0  0  0
  7 28  1  0  0  0  0
  8 29  1  0  0  0  0
  8 32  1  0  0  0  0
  9 30  1  0  0  0  0
  9 31  1  0  0  0  0
 10 11  1  0  0  0  0
 10 33  1  0  0  0  0
 10 34  1  0  0  0  0
 11 13  1  0  0  0  0
 11 14  2  0  0  0  0
 12 15  1  0  0  0  0
 13 16  2  0  0  0  0
 14 17  1  0  0  0  0
 14 36  1  0  0  0  0
 15 19  2  0  0  0  0
 15 20  1  0  0  0  0
 16 18  1  0  0  0  0
 16 37  1  0  0  0  0
 17 18  2  0  0  0  0
 17 38  1  0  0  0  0
 18 40  1  0  0  0  0
 19 21  1  0  0  0  0
 19 39  1  0  0  0  0
 20 41  1  0  0  0  0
 20 42  1  0  0  0  0
 20 43  1  0  0  0  0
 21 23  1  0  0  0  0
 21 44  1  0  0  0  0
 21 45  1  0  0  0  0
 22 46  1  0  0  0  0
 22 47  1  0  0  0  0
 22 48  1  0  0  0  0
 23 49  1  0  0  0  0
 23 50  1  0  0  0  0
 23 51  1  0  0  0  0
M  END
> <PUBCHEM_COMPOUND_CID>
51090991

> <PUBCHEM_CONFORMER_RMSD>
1

> <PUBCHEM_CONFORMER_DIVERSEORDER>
1
140
29
70
26
134
126
94
83
111
132
109
89
72
106
73
127
47
112
13
129
96
61
119
31
143
64
124
107
57
49
66
128
136
30
51
115
99
62
114
9
91
87
71
123
120
75
6
138
18
54
48
85
22
103
92
81
28
74
52
100
14
144
35
50
117
67
139
141
104
46
24
142
86
102
82
11
36
25
38
3
145
33
19
8
90
37
65
32
113
76
53
84
101
7
79
27
78
58
88
118
55
60
110
59
135
93
77
43
69
68
122
105
97
121
95
80
116
41
131
42
2
15
21
133
56
98
130
23
45
44
20
137
10
34
63
39
5
12
125
16
4
40
17
108

> <PUBCHEM_MMFF94_PARTIAL_CHARGES>
26
1 -0.57
10 0.41
11 -0.14
12 0.62
13 0.08
14 -0.15
15 -0.12
16 -0.15
17 -0.15
18 -0.15
19 -0.29
2 -0.36
20 0.14
21 0.14
22 0.28
3 -0.81
35 0.37
36 0.15
37 0.15
38 0.15
39 0.15
4 -0.73
40 0.15
5 0.3
8 0.27
9 0.27

> <PUBCHEM_EFFECTIVE_ROTOR_COUNT>
8.2

> <PUBCHEM_PHARMACOPHORE_FEATURES>
8
1 1 acceptor
1 2 acceptor
1 20 hydrophobe
1 23 hydrophobe
1 3 cation
1 4 donor
6 11 13 14 16 17 18 rings
6 3 5 6 7 8 9 rings

> <PUBCHEM_HEAVY_ATOM_COUNT>
23

> <PUBCHEM_ATOM_DEF_STEREO_COUNT>
0

> <PUBCHEM_ATOM_UDEF_STEREO_COUNT>
0

> <PUBCHEM_BOND_DEF_STEREO_COUNT>
1

> <PUBCHEM_BOND_UDEF_STEREO_COUNT>
0

> <PUBCHEM_ISOTOPIC_ATOM_COUNT>
0

> <PUBCHEM_COMPONENT_COUNT>
1

> <PUBCHEM_CACTVS_TAUTO_COUNT>
2

> <PUBCHEM_CONFORMER_ID>
030B962F00000001

> <PUBCHEM_MMFF94_ENERGY>
51.2668

> <PUBCHEM_FEATURE_SELFOVERLAP>
40.594

> <PUBCHEM_SHAPE_FINGERPRINT>
11796584 16 6338948949580030789
12403259 118 18341065089136799569
12925494 130 18338520867214413553
14341114 328 18060137682333799323
14528608 73 18412545405284246564
1454969 45 18336266739765207447
14787075 74 17846497015321820739
14790565 3 18408884023042597489
14849402 71 18060422392260102096
15183329 4 5184347391311137921
1601671 61 18335986470861533544
17349148 13 12103560922416278443
17844677 252 18408316683616567490
17959699 21 18335701611835845384
1813 80 4895557385447762216
18222031 100 11023819617662382002
18335252 114 18264776634817418164
19377110 9 17775291564238594619
23559900 14 18192997246964659507
2637199 183 18412825811215079018
34797466 226 18113892750002409293
4098825 35 18335133156098055468
4325135 7 18060134358176922183
5104073 3 18272655649047198649
5207 123 7997704098908094600
53794403 172 17985537854705714060
54446538 1 18410577288134386676
633830 44 18334867112400925118
8988823 20 11455888027761121502
90127 26 18412256216736241650
960060 61 5978101375664645784

> <PUBCHEM_SHAPE_MULTIPOLES>
451.63
14.45
2.9
1.19
0.88
1.07
0.08
4.29
-0.41
-0.38
0.25
0.96
-0.08
0.52

> <PUBCHEM_SHAPE_SELFOVERLAP>
922.217

> <PUBCHEM_SHAPE_VOLUME>
261.3

> <PUBCHEM_COORDINATE_TYPE>
2
5
10

$$$$

