6940
  -OEChem-06261201363D

 15 15  0     0  0  0  0  0  0999 V2000
    0.5924   -2.5885    0.2266 Br  0  0  0  0  0  0  0  0  0  0  0  0
    2.1639    1.1665    0.9405 O   0  0  0  0  0  0  0  0  0  0  0  0
    2.4429   -0.1294   -0.9059 O   0  0  0  0  0  0  0  0  0  0  0  0
    0.2438    0.2630   -0.0491 C   0  0  0  0  0  0  0  0  0  0  0  0
   -0.3911   -0.9726    0.0763 C   0  0  0  0  0  0  0  0  0  0  0  0
   -0.5142    1.4290   -0.1565 C   0  0  0  0  0  0  0  0  0  0  0  0
   -1.7841   -1.0423    0.0941 C   0  0  0  0  0  0  0  0  0  0  0  0
   -1.9072    1.3594   -0.1386 C   0  0  0  0  0  0  0  0  0  0  0  0
   -2.5422    0.1237   -0.0133 C   0  0  0  0  0  0  0  0  0  0  0  0
    1.6959    0.3912   -0.0741 C   0  0  0  0  0  0  0  0  0  0  0  0
   -0.0358    2.3999   -0.2593 H   0  0  0  0  0  0  0  0  0  0  0  0
   -2.2970   -1.9958    0.1910 H   0  0  0  0  0  0  0  0  0  0  0  0
   -2.4977    2.2670   -0.2234 H   0  0  0  0  0  0  0  0  0  0  0  0
   -3.6269    0.0697    0.0002 H   0  0  0  0  0  0  0  0  0  0  0  0
    3.1412    1.2486    0.9165 H   0  0  0  0  0  0  0  0  0  0  0  0
  1  5  1  0  0  0  0
  2 10  1  0  0  0  0
  2 15  1  0  0  0  0
  3 10  2  0  0  0  0
  4  5  1  0  0  0  0
  4  6  2  0  0  0  0
  4 10  1  0  0  0  0
  5  7  2  0  0  0  0
  6  8  1  0  0  0  0
  6 11  1  0  0  0  0
  7  9  1  0  0  0  0
  7 12  1  0  0  0  0
  8  9  2  0  0  0  0
  8 13  1  0  0  0  0
  9 14  1  0  0  0  0
M  END
> <PUBCHEM_COMPOUND_CID>
6940

> <PUBCHEM_CONFORMER_RMSD>
0.4

> <PUBCHEM_CONFORMER_DIVERSEORDER>
1
2

> <PUBCHEM_MMFF94_PARTIAL_CHARGES>
15
1 -0.11
10 0.63
11 0.15
12 0.15
13 0.15
14 0.15
15 0.5
2 -0.65
3 -0.57
4 0.09
5 0.11
6 -0.15
7 -0.15
8 -0.15
9 -0.15

> <PUBCHEM_EFFECTIVE_ROTOR_COUNT>
1

> <PUBCHEM_PHARMACOPHORE_FEATURES>
5
1 1 hydrophobe
1 2 acceptor
1 3 acceptor
3 2 3 10 anion
6 4 5 6 7 8 9 rings

> <PUBCHEM_HEAVY_ATOM_COUNT>
10

> <PUBCHEM_ATOM_DEF_STEREO_COUNT>
0

> <PUBCHEM_ATOM_UDEF_STEREO_COUNT>
0

> <PUBCHEM_BOND_DEF_STEREO_COUNT>
0

> <PUBCHEM_BOND_UDEF_STEREO_COUNT>
0

> <PUBCHEM_ISOTOPIC_ATOM_COUNT>
0

> <PUBCHEM_COMPONENT_COUNT>
1

> <PUBCHEM_CACTVS_TAUTO_COUNT>
1

> <PUBCHEM_CONFORMER_ID>
00001B1C00000001

> <PUBCHEM_MMFF94_ENERGY>
29.0478

> <PUBCHEM_FEATURE_SELFOVERLAP>
25.429

> <PUBCHEM_SHAPE_FINGERPRINT>
12423570 1 9626157866714695733
12897270 3 18411138056328778709
16945 1 18412826893409668077
193761 8 18051694644329256041
20645464 45 18187371974010042560
20871998 184 17902508182034873350
21040471 1 18413108363748448629
23211744 41 18114468855340275172
23552423 10 18128249193469462879
2748010 2 18124313796782914919
29004967 10 16660357082527922020
369184 2 16877657933575604681
5084963 1 18261382326136251917
5255222 1 18267584800135720493

> <PUBCHEM_SHAPE_MULTIPOLES>
200
3.16
2.21
0.75
0.17
1.33
0.02
-0.71
-0.15
-0.57
0.23
-0.28
-0.07
0.16

> <PUBCHEM_SHAPE_SELFOVERLAP>
405.693

> <PUBCHEM_SHAPE_VOLUME>
120

> <PUBCHEM_COORDINATE_TYPE>
2
5
10

$$$$

