17396217
  -OEChem-06241222553D

 48 50  0     0  0  0  0  0  0999 V2000
    2.7145   -0.4114    1.5172 O   0  0  0  0  0  0  0  0  0  0  0  0
    3.9276    2.7779   -1.2810 O   0  0  0  0  0  0  0  0  0  0  0  0
   -1.7853    3.1360    0.7682 O   0  0  0  0  0  0  0  0  0  0  0  0
   -1.9983   -1.3320   -1.8898 O   0  0  0  0  0  0  0  0  0  0  0  0
   -2.0778   -2.8838   -0.1914 O   0  0  0  0  0  0  0  0  0  0  0  0
    2.3743    2.1924    0.3469 N   0  0  0  0  0  0  0  0  0  0  0  0
    1.0681    2.0412    0.7252 N   0  0  0  0  0  0  0  0  0  0  0  0
   -1.7313    0.9005   -0.0060 N   0  0  0  0  0  0  0  0  0  0  0  0
    3.4112    1.8759    1.3142 C   0  0  0  0  0  0  0  0  0  0  0  0
    3.8305    0.4199    1.2259 C   0  0  0  0  0  0  0  0  0  0  0  0
    0.1697    2.3287   -0.1526 C   0  0  0  0  0  0  0  0  0  0  0  0
    2.7623    2.6323   -0.9126 C   0  0  0  0  0  0  0  0  0  0  0  0
   -3.0327    0.4125    0.2588 C   0  0  0  0  0  0  0  0  0  0  0  0
    0.3994    2.8023   -1.5184 C   0  0  0  0  0  0  0  0  0  0  0  0
   -1.2480    2.1637    0.2618 C   0  0  0  0  0  0  0  0  0  0  0  0
    1.6751    2.9442   -1.8700 C   0  0  0  0  0  0  0  0  0  0  0  0
   -3.3891   -0.8965   -0.0658 C   0  0  0  0  0  0  0  0  0  0  0  0
    2.6859   -1.6410    0.9129 C   0  0  0  0  0  0  0  0  0  0  0  0
   -3.9658    1.2625    0.8525 C   0  0  0  0  0  0  0  0  0  0  0  0
   -4.6786   -1.3552    0.2033 C   0  0  0  0  0  0  0  0  0  0  0  0
   -5.2553    0.8036    1.1217 C   0  0  0  0  0  0  0  0  0  0  0  0
   -5.6116   -0.5051    0.7971 C   0  0  0  0  0  0  0  0  0  0  0  0
    3.8788   -2.2930    0.6003 C   0  0  0  0  0  0  0  0  0  0  0  0
    1.4633   -2.2407    0.6098 C   0  0  0  0  0  0  0  0  0  0  0  0
   -2.4390   -1.8106   -0.6875 C   0  0  0  0  0  0  0  0  0  0  0  0
    3.8494   -3.5442   -0.0155 C   0  0  0  0  0  0  0  0  0  0  0  0
    1.4340   -3.4920   -0.0058 C   0  0  0  0  0  0  0  0  0  0  0  0
    2.6271   -4.1437   -0.3185 C   0  0  0  0  0  0  0  0  0  0  0  0
   -1.0581   -2.1444   -2.6009 C   0  0  0  0  0  0  0  0  0  0  0  0
    4.2801    2.5233    1.1523 H   0  0  0  0  0  0  0  0  0  0  0  0
    3.0112    2.0958    2.3112 H   0  0  0  0  0  0  0  0  0  0  0  0
    4.2199    0.2401    0.2153 H   0  0  0  0  0  0  0  0  0  0  0  0
    4.6222    0.2229    1.9577 H   0  0  0  0  0  0  0  0  0  0  0  0
   -0.4254    3.0174   -2.1838 H   0  0  0  0  0  0  0  0  0  0  0  0
    1.9505    3.2890   -2.8600 H   0  0  0  0  0  0  0  0  0  0  0  0
   -1.0886    0.2418   -0.4390 H   0  0  0  0  0  0  0  0  0  0  0  0
   -3.7669    2.2873    1.1325 H   0  0  0  0  0  0  0  0  0  0  0  0
   -4.9704   -2.3724   -0.0459 H   0  0  0  0  0  0  0  0  0  0  0  0
   -5.9829    1.4645    1.5839 H   0  0  0  0  0  0  0  0  0  0  0  0
   -6.6157   -0.8622    1.0063 H   0  0  0  0  0  0  0  0  0  0  0  0
    4.8506   -1.8747    0.8451 H   0  0  0  0  0  0  0  0  0  0  0  0
    0.5316   -1.7363    0.8505 H   0  0  0  0  0  0  0  0  0  0  0  0
    4.7778   -4.0551   -0.2531 H   0  0  0  0  0  0  0  0  0  0  0  0
    0.4843   -3.9624   -0.2408 H   0  0  0  0  0  0  0  0  0  0  0  0
    2.6040   -5.1189   -0.7961 H   0  0  0  0  0  0  0  0  0  0  0  0
   -0.0542   -1.9607   -2.2111 H   0  0  0  0  0  0  0  0  0  0  0  0
   -1.3117   -3.2068   -2.5371 H   0  0  0  0  0  0  0  0  0  0  0  0
   -1.0838   -1.8468   -3.6528 H   0  0  0  0  0  0  0  0  0  0  0  0
  1 10  1  0  0  0  0
  1 18  1  0  0  0  0
  2 12  2  0  0  0  0
  3 15  2  0  0  0  0
  4 25  1  0  0  0  0
  4 29  1  0  0  0  0
  5 25  2  0  0  0  0
  6  7  1  0  0  0  0
  6  9  1  0  0  0  0
  6 12  1  0  0  0  0
  7 11  2  0  0  0  0
  8 13  1  0  0  0  0
  8 15  1  0  0  0  0
  8 36  1  0  0  0  0
  9 10  1  0  0  0  0
  9 30  1  0  0  0  0
  9 31  1  0  0  0  0
 10 32  1  0  0  0  0
 10 33  1  0  0  0  0
 11 14  1  0  0  0  0
 11 15  1  0  0  0  0
 12 16  1  0  0  0  0
 13 17  1  0  0  0  0
 13 19  2  0  0  0  0
 14 16  2  0  0  0  0
 14 34  1  0  0  0  0
 16 35  1  0  0  0  0
 17 20  2  0  0  0  0
 17 25  1  0  0  0  0
 18 23  2  0  0  0  0
 18 24  1  0  0  0  0
 19 21  1  0  0  0  0
 19 37  1  0  0  0  0
 20 22  1  0  0  0  0
 20 38  1  0  0  0  0
 21 22  2  0  0  0  0
 21 39  1  0  0  0  0
 22 40  1  0  0  0  0
 23 26  1  0  0  0  0
 23 41  1  0  0  0  0
 24 27  2  0  0  0  0
 24 42  1  0  0  0  0
 26 28  2  0  0  0  0
 26 43  1  0  0  0  0
 27 28  1  0  0  0  0
 27 44  1  0  0  0  0
 28 45  1  0  0  0  0
 29 46  1  0  0  0  0
 29 47  1  0  0  0  0
 29 48  1  0  0  0  0
M  END
> <PUBCHEM_COMPOUND_CID>
17396217

> <PUBCHEM_CONFORMER_RMSD>
1.2

> <PUBCHEM_CONFORMER_DIVERSEORDER>
1
66
25
21
5
7
73
27
38
42
86
16
75
22
29
72
43
30
67
85
53
26
69
57
15
84
39
47
46
78
55
59
37
74
35
41
58
34
70
56
83
87
77
10
50
61
54
90
28
19
62
64
65
24
17
12
68
81
44
31
20
13
32
36
52
48
82
80
60
63
79
49
3
45
18
23
71
9
89
76
51
14
4
40
8
88
11
33
6
2

> <PUBCHEM_MMFF94_PARTIAL_CHARGES>
41
1 -0.36
10 0.28
11 0.44
12 0.62
13 0.12
14 -0.14
15 0.63
16 -0.14
17 0.09
18 0.08
19 -0.15
2 -0.57
20 -0.15
21 -0.15
22 -0.15
23 -0.15
24 -0.15
25 0.63
26 -0.15
27 -0.15
28 -0.15
29 0.28
3 -0.57
34 0.15
35 0.15
36 0.37
37 0.15
38 0.15
39 0.15
4 -0.43
40 0.15
41 0.15
42 0.15
43 0.15
44 0.15
45 0.15
5 -0.57
6 -0.3
7 -0.51
8 -0.55
9 0.3

> <PUBCHEM_EFFECTIVE_ROTOR_COUNT>
9

> <PUBCHEM_PHARMACOPHORE_FEATURES>
9
1 1 acceptor
1 2 acceptor
1 3 acceptor
1 5 acceptor
1 7 acceptor
1 8 donor
6 13 17 19 20 21 22 rings
6 18 23 24 26 27 28 rings
6 6 7 11 12 14 16 rings

> <PUBCHEM_HEAVY_ATOM_COUNT>
29

> <PUBCHEM_ATOM_DEF_STEREO_COUNT>
0

> <PUBCHEM_ATOM_UDEF_STEREO_COUNT>
0

> <PUBCHEM_BOND_DEF_STEREO_COUNT>
0

> <PUBCHEM_BOND_UDEF_STEREO_COUNT>
0

> <PUBCHEM_ISOTOPIC_ATOM_COUNT>
0

> <PUBCHEM_COMPONENT_COUNT>
1

> <PUBCHEM_CACTVS_TAUTO_COUNT>
3

> <PUBCHEM_CONFORMER_ID>
010971F900000001

> <PUBCHEM_MMFF94_ENERGY>
87.5046

> <PUBCHEM_FEATURE_SELFOVERLAP>
45.671

> <PUBCHEM_SHAPE_FINGERPRINT>
10483366 6 18269815585750463566
11513181 2 17894917334203630190
12156800 1 15795635314082110906
12403259 327 17023199222402644401
12422481 6 18192139611527262105
13402501 40 17398115335843268254
14020679 6 17628049490444201801
14725015 67 16107004018881312672
14790565 3 18122904222766018504
14863182 85 18340206298227261008
15264996 154 18268975549354638303
15297060 5 18117551830584771208
161222 619 17985524698867263947
17818456 19 18189609630750299281
17974551 9 16955369435631993536
1813 80 17917712439256019401
1979834 28 18411140203596266384
20739085 24 18271813384770666784
20775530 9 18195254536141642474
21421861 104 18339060675482461353
338550 245 18411980260602783928
3493558 16 16738322567838992763
35225 105 14348368821586031708
445580 8 18262802860847092686
463206 1 18267305335256348329
5283178 26 17540824223141359236
6287921 2 18410015433577298658

> <PUBCHEM_SHAPE_MULTIPOLES>
552.52
9.65
5.52
1.63
8.1
1.05
-0.89
2.91
3.65
-5.93
-1.62
-0.27
-0.29
-1.46

> <PUBCHEM_SHAPE_SELFOVERLAP>
1186.134

> <PUBCHEM_SHAPE_VOLUME>
301.5

> <PUBCHEM_COORDINATE_TYPE>
2
5
10

$$$$

