4438
  -OEChem-06261200073D

 30 31  0     0  0  0  0  0  0999 V2000
   -1.6406    2.8996    0.0690 S   0  0  0  0  0  0  0  0  0  0  0  0
   -3.3641   -2.2074   -0.0963 S   0  0  0  0  0  0  0  0  0  0  0  0
    4.3972   -0.7955    0.0701 S   0  0  0  0  0  0  0  0  0  0  0  0
   -1.1921    3.4738   -1.3913 O   0  0  0  0  0  0  0  0  0  0  0  0
   -3.7173   -2.5265    1.4678 O   0  0  0  0  0  0  0  0  0  0  0  0
   -3.0878    2.9923    0.1429 O   0  0  0  0  0  0  0  0  0  0  0  0
   -0.7970    3.5097    1.0802 O   0  0  0  0  0  0  0  0  0  0  0  0
    4.8275   -0.8974   -1.5039 O   0  0  0  0  0  0  0  0  0  0  0  0
   -4.5160   -1.5186   -0.6597 O   0  0  0  0  0  0  0  0  0  0  0  0
   -2.8600   -3.4291   -0.7038 O   0  0  0  0  0  0  0  0  0  0  0  0
    5.2363    0.2293    0.6741 O   0  0  0  0  0  0  0  0  0  0  0  0
    4.3622   -2.1429    0.6170 O   0  0  0  0  0  0  0  0  0  0  0  0
    0.1083    0.7373    0.0399 C   0  0  0  0  0  0  0  0  0  0  0  0
    0.3621   -0.6548    0.0068 C   0  0  0  0  0  0  0  0  0  0  0  0
   -1.2198    1.1935    0.0302 C   0  0  0  0  0  0  0  0  0  0  0  0
   -2.0330   -1.0782   -0.0444 C   0  0  0  0  0  0  0  0  0  0  0  0
   -0.7198   -1.5493   -0.0351 C   0  0  0  0  0  0  0  0  0  0  0  0
   -2.2824    0.2906   -0.0118 C   0  0  0  0  0  0  0  0  0  0  0  0
    1.6901   -1.1111    0.0167 C   0  0  0  0  0  0  0  0  0  0  0  0
    1.1902    1.6318    0.0821 C   0  0  0  0  0  0  0  0  0  0  0  0
    2.7528   -0.2080    0.0585 C   0  0  0  0  0  0  0  0  0  0  0  0
    2.5034    1.1608    0.0912 C   0  0  0  0  0  0  0  0  0  0  0  0
   -0.5233   -2.6195   -0.0519 H   0  0  0  0  0  0  0  0  0  0  0  0
   -3.3114    0.6358   -0.0141 H   0  0  0  0  0  0  0  0  0  0  0  0
    1.8839   -2.1813   -0.0173 H   0  0  0  0  0  0  0  0  0  0  0  0
    1.0834    2.7090    0.0578 H   0  0  0  0  0  0  0  0  0  0  0  0
    3.3166    1.8813    0.1060 H   0  0  0  0  0  0  0  0  0  0  0  0
   -1.6505    3.0688   -2.1648 H   0  0  0  0  0  0  0  0  0  0  0  0
   -4.0086   -1.7506    2.0022 H   0  0  0  0  0  0  0  0  0  0  0  0
    4.8222   -0.0450   -1.9997 H   0  0  0  0  0  0  0  0  0  0  0  0
  1  4  1  0  0  0  0
  1  6  2  0  0  0  0
  1  7  2  0  0  0  0
  1 15  1  0  0  0  0
  2  5  1  0  0  0  0
  2  9  2  0  0  0  0
  2 10  2  0  0  0  0
  2 16  1  0  0  0  0
  3  8  1  0  0  0  0
  3 11  2  0  0  0  0
  3 12  2  0  0  0  0
  3 21  1  0  0  0  0
  4 28  1  0  0  0  0
  5 29  1  0  0  0  0
  8 30  1  0  0  0  0
 13 14  1  0  0  0  0
 13 15  2  0  0  0  0
 13 20  1  0  0  0  0
 14 17  2  0  0  0  0
 14 19  1  0  0  0  0
 15 18  1  0  0  0  0
 16 17  1  0  0  0  0
 16 18  2  0  0  0  0
 17 23  1  0  0  0  0
 18 24  1  0  0  0  0
 19 21  2  0  0  0  0
 19 25  1  0  0  0  0
 20 22  2  0  0  0  0
 20 26  1  0  0  0  0
 21 22  1  0  0  0  0
 22 27  1  0  0  0  0
M  END
> <PUBCHEM_COMPOUND_CID>
4438

> <PUBCHEM_CONFORMER_RMSD>
0.6

> <PUBCHEM_CONFORMER_DIVERSEORDER>
2
1
4
3

> <PUBCHEM_MMFF94_PARTIAL_CHARGES>
28
1 1.49
10 -0.65
11 -0.65
12 -0.65
15 -0.01
16 -0.01
17 -0.15
18 -0.15
19 -0.15
2 1.49
20 -0.15
21 -0.01
22 -0.15
23 0.15
24 0.15
25 0.15
26 0.15
27 0.15
28 0.5
29 0.5
3 1.49
30 0.5
4 -0.68
5 -0.68
6 -0.65
7 -0.65
8 -0.68
9 -0.65

> <PUBCHEM_EFFECTIVE_ROTOR_COUNT>
3

> <PUBCHEM_PHARMACOPHORE_FEATURES>
14
1 10 acceptor
1 11 acceptor
1 12 acceptor
1 4 acceptor
1 5 acceptor
1 6 acceptor
1 7 acceptor
1 8 acceptor
1 9 acceptor
4 1 4 6 7 anion
4 2 5 9 10 anion
4 3 8 11 12 anion
6 13 14 15 16 17 18 rings
6 13 14 19 20 21 22 rings

> <PUBCHEM_HEAVY_ATOM_COUNT>
22

> <PUBCHEM_ATOM_DEF_STEREO_COUNT>
0

> <PUBCHEM_ATOM_UDEF_STEREO_COUNT>
0

> <PUBCHEM_BOND_DEF_STEREO_COUNT>
0

> <PUBCHEM_BOND_UDEF_STEREO_COUNT>
0

> <PUBCHEM_ISOTOPIC_ATOM_COUNT>
0

> <PUBCHEM_COMPONENT_COUNT>
1

> <PUBCHEM_CACTVS_TAUTO_COUNT>
1

> <PUBCHEM_CONFORMER_ID>
0000115600000002

> <PUBCHEM_MMFF94_ENERGY>
38.8806

> <PUBCHEM_FEATURE_SELFOVERLAP>
71.24

> <PUBCHEM_SHAPE_FINGERPRINT>
10319926 262 18191047753868694658
10411042 1 18265616489702113927
10967382 1 17833833768032302953
1100329 8 18337107964333098825
11045515 52 18201163135503944781
11578080 2 17386872550608668721
116883 192 18408319964929578790
12403259 226 18335427833255802576
12553582 1 18338511928706559746
12788726 201 18342182167429152194
13052359 8 18268715093957702097
13134695 92 18118972382385874573
13140716 1 18410005525103324489
13583140 156 14273730797863890963
138480 1 15887431572610915193
14178342 30 18268445675492223018
14508225 48 18339371781369884813
14790565 3 17114099967772148929
14866123 147 18267024053748760515
15042514 8 18339637944898571369
16087824 20 18339081597180971637
16752209 62 18339932592260728722
16945 1 18337670922517004753
17357779 13 18335999583470535173
17492 89 18410857694213587810
1813 80 18190724354866978463
19427546 20 18342167886968659532
20510252 161 18334297578262567600
20739085 24 18122600809238141771
21029758 11 18338241448929996771
21041028 32 18268699533628617179
21267235 1 18338510842085011143
21478907 32 18410860962240081627
21524375 3 17910950571472870681
221490 88 17909548363651551059
23175994 123 18269836415851556335
2334 1 18266740186548657369
23402539 116 18334021562173745119
23557571 272 18261103114849893340
23558518 356 18343016696875803544
23559900 14 18335995198578269304
23845131 108 17759508268655347473
25147074 1 18059575858363715482
2748010 2 18265347122411926773
283562 15 18411984671471010514
3091708 16 9421791571888245513
314173 85 18335133150890900091
335352 9 18410014330202791871
350125 39 18409449150966781952
352729 6 18263643033875795333
5104073 3 18336552715735412242
54173680 148 18410013277303054608
5486654 2 18192427696237386893
68521 5 18410575084710597271
7164475 11 18413106152404722468
7364860 26 17544195978753717441
81228 2 18412537730578719289
9709674 26 18188772893731914334

> <PUBCHEM_SHAPE_MULTIPOLES>
411.47
8.47
4.1
0.92
8.03
2.4
-0.06
-6
-0.09
-4.86
-0.02
0.01
0.01
0.16

> <PUBCHEM_SHAPE_SELFOVERLAP>
856.684

> <PUBCHEM_SHAPE_VOLUME>
234.7

> <PUBCHEM_COORDINATE_TYPE>
2
5
10

$$$$

