3756
  -OEChem-06251223382D

 26 28  0     0  0  0  0  0  0999 V2000
    4.6660   -2.3728    0.0000 Cl  0  0  0  0  0  0  0  0  0  0  0  0
    6.3981    0.6272    0.0000 O   0  0  0  0  0  0  0  0  0  0  0  0
    4.3009    1.5515    0.0000 N   0  0  0  0  0  0  0  0  0  0  0  0
    2.9061   -1.4075    0.0000 N   0  0  0  0  0  0  0  0  0  0  0  0
    6.3981   -1.3728    0.0000 N   0  0  0  0  0  0  0  0  0  0  0  0
    3.8000    0.1272    0.0000 C   0  0  0  0  0  0  0  0  0  0  0  0
    2.9061    0.6619    0.0000 C   0  0  0  0  0  0  0  0  0  0  0  0
    4.6660    0.6272    0.0000 C   0  0  0  0  0  0  0  0  0  0  0  0
    2.0000    0.1480    0.0000 C   0  0  0  0  0  0  0  0  0  0  0  0
    3.8000   -0.8728    0.0000 C   0  0  0  0  0  0  0  0  0  0  0  0
    3.3073    1.5711    0.0000 C   0  0  0  0  0  0  0  0  0  0  0  0
    2.0000   -0.8936    0.0000 C   0  0  0  0  0  0  0  0  0  0  0  0
    5.5321    0.1272    0.0000 C   0  0  0  0  0  0  0  0  0  0  0  0
    4.6660   -1.3728    0.0000 C   0  0  0  0  0  0  0  0  0  0  0  0
    5.5321   -0.8728    0.0000 C   0  0  0  0  0  0  0  0  0  0  0  0
    4.8714    2.3728    0.0000 C   0  0  0  0  0  0  0  0  0  0  0  0
    1.7909    0.7317    0.0000 H   0  0  0  0  0  0  0  0  0  0  0  0
    1.3891    0.0419    0.0000 H   0  0  0  0  0  0  0  0  0  0  0  0
    2.9739    2.0938    0.0000 H   0  0  0  0  0  0  0  0  0  0  0  0
    1.3891   -0.7875    0.0000 H   0  0  0  0  0  0  0  0  0  0  0  0
    1.7909   -1.4773    0.0000 H   0  0  0  0  0  0  0  0  0  0  0  0
    5.3806    2.0191    0.0000 H   0  0  0  0  0  0  0  0  0  0  0  0
    5.2252    2.8820    0.0000 H   0  0  0  0  0  0  0  0  0  0  0  0
    4.3623    2.7265    0.0000 H   0  0  0  0  0  0  0  0  0  0  0  0
    6.3981   -1.9928    0.0000 H   0  0  0  0  0  0  0  0  0  0  0  0
    6.9350   -1.0628    0.0000 H   0  0  0  0  0  0  0  0  0  0  0  0
  1 14  1  0  0  0  0
  2 13  2  0  0  0  0
  3  8  1  0  0  0  0
  3 11  1  0  0  0  0
  3 16  1  0  0  0  0
  4 10  2  0  0  0  0
  4 12  1  0  0  0  0
  5 15  1  0  0  0  0
  5 25  1  0  0  0  0
  5 26  1  0  0  0  0
  6  7  1  0  0  0  0
  6  8  2  0  0  0  0
  6 10  1  0  0  0  0
  7  9  1  0  0  0  0
  7 11  2  0  0  0  0
  8 13  1  0  0  0  0
  9 12  1  0  0  0  0
  9 17  1  0  0  0  0
  9 18  1  0  0  0  0
 10 14  1  0  0  0  0
 11 19  1  0  0  0  0
 12 20  1  0  0  0  0
 12 21  1  0  0  0  0
 13 15  1  0  0  0  0
 14 15  2  0  0  0  0
 16 22  1  0  0  0  0
 16 23  1  0  0  0  0
 16 24  1  0  0  0  0
M  END
> <PUBCHEM_COMPOUND_CID>
3756

> <PUBCHEM_COMPOUND_CANONICALIZED>
1

> <PUBCHEM_CACTVS_COMPLEXITY>
429

> <PUBCHEM_CACTVS_HBOND_ACCEPTOR>
3

> <PUBCHEM_CACTVS_HBOND_DONOR>
1

> <PUBCHEM_CACTVS_ROTATABLE_BOND>
0

> <PUBCHEM_CACTVS_SUBSKEYS>
AAADccBzIAAEAAAAAAAAAAAAAAAAAWAAAAAgQAAAAAAAAECBgAAAHgIQAAAADA7BngQugJNMEACoA5R3RACCgCA3ACAA2CGoRtgIIHLB1bGEAQhggADIyQcYiQAOgAAAAAAAAAAAAAAAAAAAAAAAAAAAAA==

> <PUBCHEM_IUPAC_INCHI>
InChI=1S/C11H10ClN3O/c1-15-4-5-2-3-14-9-6(5)10(15)11(16)8(13)7(9)12/h4H,2-3,13H2,1H3

> <PUBCHEM_IUPAC_INCHIKEY>
QNUUYJZICNRMSA-UHFFFAOYSA-N

> <PUBCHEM_XLOGP3_AA>
0.8

> <PUBCHEM_EXACT_MASS>
235.05124

> <PUBCHEM_MOLECULAR_FORMULA>
C11H10ClN3O

> <PUBCHEM_MOLECULAR_WEIGHT>
235.6696

> <PUBCHEM_OPENEYE_CAN_SMILES>
CN1C=C2CCN=C3C2=C1C(=O)C(=C3Cl)N

> <PUBCHEM_OPENEYE_ISO_SMILES>
CN1C=C2CCN=C3C2=C1C(=O)C(=C3Cl)N

> <PUBCHEM_CACTVS_TPSA>
60.4

> <PUBCHEM_MONOISOTOPIC_WEIGHT>
235.05124

> <PUBCHEM_TOTAL_CHARGE>
0

> <PUBCHEM_HEAVY_ATOM_COUNT>
16

> <PUBCHEM_ATOM_DEF_STEREO_COUNT>
0

> <PUBCHEM_ATOM_UDEF_STEREO_COUNT>
0

> <PUBCHEM_BOND_DEF_STEREO_COUNT>
0

> <PUBCHEM_BOND_UDEF_STEREO_COUNT>
0

> <PUBCHEM_ISOTOPIC_ATOM_COUNT>
0

> <PUBCHEM_COMPONENT_COUNT>
1

> <PUBCHEM_CACTVS_TAUTO_COUNT>
3

> <PUBCHEM_COORDINATE_TYPE>
1
5
255

> <PUBCHEM_BONDANNOTATIONS>
3  11  8
3  8  8
6  7  8
6  8  8
7  11  8

$$$$

