47205618
  -OEChem-06241222592D

 28 28  0     0  0  0  0  0  0999 V2000
    6.2147   -0.8800    0.0000 O   0  0  0  0  0  0  0  0  0  0  0  0
    8.3248   -2.4762    0.0000 O   0  0  0  0  0  0  0  0  0  0  0  0
    2.2788    1.6943    0.0000 O   0  0  0  0  0  0  0  0  0  0  0  0
    4.3126   -0.2620    0.0000 O   0  0  0  0  0  0  0  0  0  0  0  0
    6.7500    0.7672    0.0000 O   0  0  0  0  0  0  0  0  0  0  0  0
    4.8479    1.3853    0.0000 N   0  0  0  0  0  0  0  0  0  0  0  0
    3.0878    1.1065    0.0000 N   0  0  0  0  0  0  0  0  0  0  0  0
    7.1658   -1.1890    0.0000 C   0  0  0  0  0  0  0  0  0  0  0  0
    7.3737   -2.1672    0.0000 C   0  0  0  0  0  0  0  0  0  0  0  0
    3.8968    1.6943    0.0000 C   0  0  0  0  0  0  0  0  0  0  0  0
    2.5878    2.6454    0.0000 C   0  0  0  0  0  0  0  0  0  0  0  0
    3.5878    2.6454    0.0000 C   0  0  0  0  0  0  0  0  0  0  0  0
    5.0558    0.4071    0.0000 C   0  0  0  0  0  0  0  0  0  0  0  0
    2.0000    3.4544    0.0000 C   0  0  0  0  0  0  0  0  0  0  0  0
    6.0068    0.0981    0.0000 C   0  0  0  0  0  0  0  0  0  0  0  0
    8.5327   -3.4544    0.0000 C   0  0  0  0  0  0  0  0  0  0  0  0
    7.7854   -1.1674    0.0000 H   0  0  0  0  0  0  0  0  0  0  0  0
    7.2521   -0.5751    0.0000 H   0  0  0  0  0  0  0  0  0  0  0  0
    6.7541   -2.1888    0.0000 H   0  0  0  0  0  0  0  0  0  0  0  0
    7.2874   -2.7812    0.0000 H   0  0  0  0  0  0  0  0  0  0  0  0
    3.9522    3.1469    0.0000 H   0  0  0  0  0  0  0  0  0  0  0  0
    5.3086    1.8001    0.0000 H   0  0  0  0  0  0  0  0  0  0  0  0
    2.5016    3.8188    0.0000 H   0  0  0  0  0  0  0  0  0  0  0  0
    1.6356    3.9560    0.0000 H   0  0  0  0  0  0  0  0  0  0  0  0
    1.4984    3.0899    0.0000 H   0  0  0  0  0  0  0  0  0  0  0  0
    7.9262   -3.5833    0.0000 H   0  0  0  0  0  0  0  0  0  0  0  0
    8.6616   -4.0608    0.0000 H   0  0  0  0  0  0  0  0  0  0  0  0
    9.1391   -3.3255    0.0000 H   0  0  0  0  0  0  0  0  0  0  0  0
  1  8  1  0  0  0  0
  1 15  1  0  0  0  0
  2  9  1  0  0  0  0
  2 16  1  0  0  0  0
  3  7  1  0  0  0  0
  3 11  1  0  0  0  0
  4 13  2  0  0  0  0
  5 15  2  0  0  0  0
  6 10  1  0  0  0  0
  6 13  1  0  0  0  0
  6 22  1  0  0  0  0
  7 10  2  0  0  0  0
  8  9  1  0  0  0  0
  8 17  1  0  0  0  0
  8 18  1  0  0  0  0
  9 19  1  0  0  0  0
  9 20  1  0  0  0  0
 10 12  1  0  0  0  0
 11 12  2  0  0  0  0
 11 14  1  0  0  0  0
 12 21  1  0  0  0  0
 13 15  1  0  0  0  0
 14 23  1  0  0  0  0
 14 24  1  0  0  0  0
 14 25  1  0  0  0  0
 16 26  1  0  0  0  0
 16 27  1  0  0  0  0
 16 28  1  0  0  0  0
M  END
> <PUBCHEM_COMPOUND_CID>
47205618

> <PUBCHEM_COMPOUND_CANONICALIZED>
1

> <PUBCHEM_CACTVS_COMPLEXITY>
258

> <PUBCHEM_CACTVS_HBOND_ACCEPTOR>
6

> <PUBCHEM_CACTVS_HBOND_DONOR>
1

> <PUBCHEM_CACTVS_ROTATABLE_BOND>
6

> <PUBCHEM_CACTVS_SUBSKEYS>
AAADccBzOAAAAAAAAAAAAAAAAAAAAWAAAAAAAAAAAAAAAAABgAAAHgAUAAAACAShkgIzvJLQBACpAKPyegKAAAAlIgAhGCH2bFqDJAhAiaQHAIhCFQrSQEAAAAAAAAAAAAAAAAAAAAAAAAAAAAAAAAAAAA==

> <PUBCHEM_IUPAC_OPENEYE_NAME>
2-methoxyethyl 2-[(5-methylisoxazol-3-yl)amino]-2-oxo-acetate

> <PUBCHEM_IUPAC_CAS_NAME>
2-[(5-methyl-3-isoxazolyl)amino]-2-oxoacetic acid 2-methoxyethyl ester

> <PUBCHEM_IUPAC_NAME>
2-methoxyethyl 2-[(5-methyl-1,2-oxazol-3-yl)amino]-2-oxoacetate

> <PUBCHEM_IUPAC_SYSTEMATIC_NAME>
2-methoxyethyl 2-[(5-methyl-1,2-oxazol-3-yl)amino]-2-oxidanylidene-ethanoate

> <PUBCHEM_IUPAC_TRADITIONAL_NAME>
2-keto-2-[(5-methylisoxazol-3-yl)amino]acetic acid 2-methoxyethyl ester

> <PUBCHEM_IUPAC_INCHI>
InChI=1S/C9H12N2O5/c1-6-5-7(11-16-6)10-8(12)9(13)15-4-3-14-2/h5H,3-4H2,1-2H3,(H,10,11,12)

> <PUBCHEM_IUPAC_INCHIKEY>
MZRNCIOZYMRHJH-UHFFFAOYSA-N

> <PUBCHEM_XLOGP3_AA>
0.4

> <PUBCHEM_EXACT_MASS>
228.074621

> <PUBCHEM_MOLECULAR_FORMULA>
C9H12N2O5

> <PUBCHEM_MOLECULAR_WEIGHT>
228.20198

> <PUBCHEM_OPENEYE_CAN_SMILES>
CC1=CC(=NO1)NC(=O)C(=O)OCCOC

> <PUBCHEM_OPENEYE_ISO_SMILES>
CC1=CC(=NO1)NC(=O)C(=O)OCCOC

> <PUBCHEM_CACTVS_TPSA>
90.7

> <PUBCHEM_MONOISOTOPIC_WEIGHT>
228.074621

> <PUBCHEM_TOTAL_CHARGE>
0

> <PUBCHEM_HEAVY_ATOM_COUNT>
16

> <PUBCHEM_ATOM_DEF_STEREO_COUNT>
0

> <PUBCHEM_ATOM_UDEF_STEREO_COUNT>
0

> <PUBCHEM_BOND_DEF_STEREO_COUNT>
0

> <PUBCHEM_BOND_UDEF_STEREO_COUNT>
0

> <PUBCHEM_ISOTOPIC_ATOM_COUNT>
0

> <PUBCHEM_COMPONENT_COUNT>
1

> <PUBCHEM_CACTVS_TAUTO_COUNT>
8

> <PUBCHEM_COORDINATE_TYPE>
1
5
255

> <PUBCHEM_BONDANNOTATIONS>
10  12  8
11  12  8
3  11  8
3  7  8
7  10  8

$$$$

