10224
  -OEChem-06261204233D

 37 38  0     1  0  0  0  0  0999 V2000
    1.2533   -0.5914   -0.6350 C   0  0  2  0  0  0  0  0  0  0  0  0
    2.2488    0.5527   -0.3779 C   0  0  0  0  0  0  0  0  0  0  0  0
    0.4187    2.2718   -0.1669 C   0  0  1  0  0  0  0  0  0  0  0  0
    1.7096    1.8780   -0.8947 C   0  0  0  0  0  0  0  0  0  0  0  0
   -0.1898   -0.2135   -0.3265 C   0  0  0  0  0  0  0  0  0  0  0  0
    1.7390   -1.8324    0.1271 C   0  0  0  0  0  0  0  0  0  0  0  0
   -0.5790    1.1297   -0.1331 C   0  0  0  0  0  0  0  0  0  0  0  0
    0.7017    2.7841    1.2508 C   0  0  0  0  0  0  0  0  0  0  0  0
   -1.1871   -1.2069   -0.3153 C   0  0  0  0  0  0  0  0  0  0  0  0
    3.1754   -2.1645   -0.2615 C   0  0  0  0  0  0  0  0  0  0  0  0
    1.6210   -1.6109    1.6310 C   0  0  0  0  0  0  0  0  0  0  0  0
   -1.9330    1.4333    0.1049 C   0  0  0  0  0  0  0  0  0  0  0  0
   -2.5252   -0.8901   -0.0765 C   0  0  0  0  0  0  0  0  0  0  0  0
   -2.8980    0.4301    0.1381 C   0  0  0  0  0  0  0  0  0  0  0  0
   -3.5553   -1.9699   -0.0646 C   0  0  0  0  0  0  0  0  0  0  0  0
    1.2781   -0.8106   -1.7126 H   0  0  0  0  0  0  0  0  0  0  0  0
    3.1910    0.3587   -0.9041 H   0  0  0  0  0  0  0  0  0  0  0  0
    2.5013    0.6761    0.6779 H   0  0  0  0  0  0  0  0  0  0  0  0
   -0.0249    3.0987   -0.7383 H   0  0  0  0  0  0  0  0  0  0  0  0
    2.4667    2.6630   -0.7814 H   0  0  0  0  0  0  0  0  0  0  0  0
    1.5111    1.7888   -1.9711 H   0  0  0  0  0  0  0  0  0  0  0  0
    1.1278   -2.7012   -0.1426 H   0  0  0  0  0  0  0  0  0  0  0  0
   -0.2059    3.1916    1.7101 H   0  0  0  0  0  0  0  0  0  0  0  0
    1.0679    1.9897    1.9098 H   0  0  0  0  0  0  0  0  0  0  0  0
    1.4482    3.5852    1.2333 H   0  0  0  0  0  0  0  0  0  0  0  0
   -0.9298   -2.2442   -0.5138 H   0  0  0  0  0  0  0  0  0  0  0  0
    3.4438   -3.1544    0.1259 H   0  0  0  0  0  0  0  0  0  0  0  0
    3.9051   -1.4622    0.1541 H   0  0  0  0  0  0  0  0  0  0  0  0
    3.2980   -2.1986   -1.3492 H   0  0  0  0  0  0  0  0  0  0  0  0
    1.8440   -2.5507    2.1514 H   0  0  0  0  0  0  0  0  0  0  0  0
    2.3318   -0.8772    2.0207 H   0  0  0  0  0  0  0  0  0  0  0  0
    0.6163   -1.3166    1.9462 H   0  0  0  0  0  0  0  0  0  0  0  0
   -2.2422    2.4644    0.2611 H   0  0  0  0  0  0  0  0  0  0  0  0
   -3.9358    0.6946    0.3207 H   0  0  0  0  0  0  0  0  0  0  0  0
   -4.4251   -1.6842    0.5367 H   0  0  0  0  0  0  0  0  0  0  0  0
   -3.8910   -2.1801   -1.0849 H   0  0  0  0  0  0  0  0  0  0  0  0
   -3.1526   -2.8902    0.3719 H   0  0  0  0  0  0  0  0  0  0  0  0
  1  2  1  0  0  0  0
  1  5  1  0  0  0  0
  1  6  1  0  0  0  0
  1 16  1  0  0  0  0
  2  4  1  0  0  0  0
  2 17  1  0  0  0  0
  2 18  1  0  0  0  0
  3  4  1  0  0  0  0
  3  7  1  0  0  0  0
  3  8  1  0  0  0  0
  3 19  1  0  0  0  0
  4 20  1  0  0  0  0
  4 21  1  0  0  0  0
  5  7  2  0  0  0  0
  5  9  1  0  0  0  0
  6 10  1  0  0  0  0
  6 11  1  0  0  0  0
  6 22  1  0  0  0  0
  7 12  1  0  0  0  0
  8 23  1  0  0  0  0
  8 24  1  0  0  0  0
  8 25  1  0  0  0  0
  9 13  2  0  0  0  0
  9 26  1  0  0  0  0
 10 27  1  0  0  0  0
 10 28  1  0  0  0  0
 10 29  1  0  0  0  0
 11 30  1  0  0  0  0
 11 31  1  0  0  0  0
 11 32  1  0  0  0  0
 12 14  2  0  0  0  0
 12 33  1  0  0  0  0
 13 14  1  0  0  0  0
 13 15  1  0  0  0  0
 14 34  1  0  0  0  0
 15 35  1  0  0  0  0
 15 36  1  0  0  0  0
 15 37  1  0  0  0  0
M  END
> <PUBCHEM_COMPOUND_CID>
10224

> <PUBCHEM_CONFORMER_RMSD>
0.6

> <PUBCHEM_CONFORMER_DIVERSEORDER>
1
2
3
4

> <PUBCHEM_MMFF94_PARTIAL_CHARGES>
12
1 0.14
12 -0.15
13 -0.14
14 -0.15
15 0.14
26 0.15
3 0.14
33 0.15
34 0.15
5 -0.14
7 -0.14
9 -0.15

> <PUBCHEM_EFFECTIVE_ROTOR_COUNT>
1.8

> <PUBCHEM_PHARMACOPHORE_FEATURES>
3
3 6 10 11 hydrophobe
6 1 2 3 4 5 7 rings
6 5 7 9 12 13 14 rings

> <PUBCHEM_HEAVY_ATOM_COUNT>
15

> <PUBCHEM_ATOM_DEF_STEREO_COUNT>
0

> <PUBCHEM_ATOM_UDEF_STEREO_COUNT>
2

> <PUBCHEM_BOND_DEF_STEREO_COUNT>
0

> <PUBCHEM_BOND_UDEF_STEREO_COUNT>
0

> <PUBCHEM_ISOTOPIC_ATOM_COUNT>
0

> <PUBCHEM_COMPONENT_COUNT>
1

> <PUBCHEM_CACTVS_TAUTO_COUNT>
1

> <PUBCHEM_CONFORMER_ID>
000027F000000001

> <PUBCHEM_MMFF94_ENERGY>
40.5631

> <PUBCHEM_FEATURE_SELFOVERLAP>
15.243

> <PUBCHEM_SHAPE_FINGERPRINT>
10967382 1 18122340181716174591
11578080 2 17559698267839576052
12202030 40 16271910619767074513
12382932 28 18336557117438417576
12423570 1 14808649690351384480
12553582 1 18198344154925591179
13140716 1 18337105795078533115
13172582 1 18120927567141370625
14817 1 10972666294867867424
15001771 113 18339917237805068150
15076042 46 17831866015970221034
15375462 189 17987509484484200363
16752209 62 17693665118040978861
16945 1 18192143798355061957
17990270 104 18411136926604875055
19868273 325 18267305528419210430
20510252 161 17613161084321281320
20559304 39 18337391539284338815
20645477 70 18268717108841137919
20871998 184 17900829549901722486
20905425 154 18408599249541572836
21501502 16 18410286995974900165
21524375 3 17757828935930375212
21650355 55 18124052374813590666
22112679 90 18189320415682571833
22344851 341 17755583737328105235
23184049 29 18411985784125801327
2334 1 18410008840543724727
23402539 116 17830187053235559653
23419403 2 17406894691536153372
23552423 10 18343015545766351125
23557571 272 18044653342154083958
257057 1 18339371862731319015
2748010 2 18337397135526375542
3071541 250 18410566275759306839
33824 294 17978793402982865995
34934 24 18410857697943494164
43471831 8 18123193394191696016
5493415 88 18411702097087939423
5902787 121 18342461477541911075
7364860 26 18335422305353213614
81228 2 17905333179477630770

> <PUBCHEM_SHAPE_MULTIPOLES>
308.69
4.54
3.11
1.01
2.28
0.92
-0.35
-3.03
0.21
-1.13
-0.54
-0.51
0.08
-0.33

> <PUBCHEM_SHAPE_SELFOVERLAP>
642.486

> <PUBCHEM_SHAPE_VOLUME>
171.8

> <PUBCHEM_COORDINATE_TYPE>
2
5
10

$$$$

