11509
  -OEChem-06261205463D

 19 18  0     0  0  0  0  0  0999 V2000
   -0.6690   -1.3221   -0.0144 O   0  0  0  0  0  0  0  0  0  0  0  0
    0.7998    0.5928   -0.0064 C   0  0  0  0  0  0  0  0  0  0  0  0
    1.9616   -0.3958    0.0251 C   0  0  0  0  0  0  0  0  0  0  0  0
   -0.5555   -0.0974   -0.0101 C   0  0  0  0  0  0  0  0  0  0  0  0
   -1.7610    0.8284   -0.0073 C   0  0  0  0  0  0  0  0  0  0  0  0
    3.3027    0.3190   -0.0050 C   0  0  0  0  0  0  0  0  0  0  0  0
   -3.0787    0.0750    0.0181 C   0  0  0  0  0  0  0  0  0  0  0  0
    0.8614    1.2138   -0.9070 H   0  0  0  0  0  0  0  0  0  0  0  0
    0.8439    1.2462    0.8720 H   0  0  0  0  0  0  0  0  0  0  0  0
    1.9004   -1.0157    0.9275 H   0  0  0  0  0  0  0  0  0  0  0  0
    1.8975   -1.0769   -0.8319 H   0  0  0  0  0  0  0  0  0  0  0  0
   -1.7132    1.4535   -0.9050 H   0  0  0  0  0  0  0  0  0  0  0  0
   -1.6935    1.4743    0.8743 H   0  0  0  0  0  0  0  0  0  0  0  0
    4.1204   -0.4081    0.0193 H   0  0  0  0  0  0  0  0  0  0  0  0
    3.4126    0.9829    0.8584 H   0  0  0  0  0  0  0  0  0  0  0  0
    3.4078    0.9179   -0.9152 H   0  0  0  0  0  0  0  0  0  0  0  0
   -3.9187    0.7764    0.0220 H   0  0  0  0  0  0  0  0  0  0  0  0
   -3.1782   -0.5730   -0.8591 H   0  0  0  0  0  0  0  0  0  0  0  0
   -3.1544   -0.5549    0.9106 H   0  0  0  0  0  0  0  0  0  0  0  0
  1  4  2  0  0  0  0
  2  3  1  0  0  0  0
  2  4  1  0  0  0  0
  2  8  1  0  0  0  0
  2  9  1  0  0  0  0
  3  6  1  0  0  0  0
  3 10  1  0  0  0  0
  3 11  1  0  0  0  0
  4  5  1  0  0  0  0
  5  7  1  0  0  0  0
  5 12  1  0  0  0  0
  5 13  1  0  0  0  0
  6 14  1  0  0  0  0
  6 15  1  0  0  0  0
  6 16  1  0  0  0  0
  7 17  1  0  0  0  0
  7 18  1  0  0  0  0
  7 19  1  0  0  0  0
M  END
> <PUBCHEM_COMPOUND_CID>
11509

> <PUBCHEM_CONFORMER_RMSD>
0.4

> <PUBCHEM_CONFORMER_DIVERSEORDER>
1
23
51
22
48
52
31
28
4
24
55
35
25
50
46
49
3
36
43
40
30
39
14
10
32
29
37
34
45
41
47
19
20
21
15
44
5
6
54
12
42
26
18
8
38
33
27
11
16
53
2
13
17
7
9

> <PUBCHEM_MMFF94_PARTIAL_CHARGES>
4
1 -0.57
2 0.06
4 0.45
5 0.06

> <PUBCHEM_EFFECTIVE_ROTOR_COUNT>
3

> <PUBCHEM_PHARMACOPHORE_FEATURES>
3
1 1 acceptor
1 6 hydrophobe
1 7 hydrophobe

> <PUBCHEM_HEAVY_ATOM_COUNT>
7

> <PUBCHEM_ATOM_DEF_STEREO_COUNT>
0

> <PUBCHEM_ATOM_UDEF_STEREO_COUNT>
0

> <PUBCHEM_BOND_DEF_STEREO_COUNT>
0

> <PUBCHEM_BOND_UDEF_STEREO_COUNT>
0

> <PUBCHEM_ISOTOPIC_ATOM_COUNT>
0

> <PUBCHEM_COMPONENT_COUNT>
1

> <PUBCHEM_CACTVS_TAUTO_COUNT>
3

> <PUBCHEM_CONFORMER_ID>
00002CF500000001

> <PUBCHEM_MMFF94_ENERGY>
-0.9606

> <PUBCHEM_FEATURE_SELFOVERLAP>
15.223

> <PUBCHEM_SHAPE_FINGERPRINT>
11062470 55 5039948541940843625
12932764 1 15647345176896442636
14325111 11 18410575123412821057
14390081 3 18260833695873015856
16714656 1 18413389843094096597
21040471 1 18410575114754275726
23235685 24 18335424577348650228
29004967 10 15338835391355414212
5460574 1 9223228550656033248

> <PUBCHEM_SHAPE_MULTIPOLES>
138.19
4.86
0.98
0.6
1
0.15
0
-0.56
-0.03
-0.15
0
0.01
-0.02
0

> <PUBCHEM_SHAPE_SELFOVERLAP>
243.948

> <PUBCHEM_SHAPE_VOLUME>
90.9

> <PUBCHEM_COORDINATE_TYPE>
2
5
10

$$$$

