7367
  -OEChem-06261202023D

 15 15  0     0  0  0  0  0  0999 V2000
    2.1663    0.8438    1.4658 Cl  0  0  0  0  0  0  0  0  0  0  0  0
    2.3151   -1.6294   -0.0067 Cl  0  0  0  0  0  0  0  0  0  0  0  0
    2.1589    0.8583   -1.4608 Cl  0  0  0  0  0  0  0  0  0  0  0  0
    0.0339   -0.0073   -0.0002 C   0  0  0  0  0  0  0  0  0  0  0  0
   -0.6673    1.1985    0.0014 C   0  0  0  0  0  0  0  0  0  0  0  0
   -0.6597   -1.2174   -0.0012 C   0  0  0  0  0  0  0  0  0  0  0  0
    1.5254   -0.0027   -0.0006 C   0  0  0  0  0  0  0  0  0  0  0  0
   -2.0622    1.1941    0.0019 C   0  0  0  0  0  0  0  0  0  0  0  0
   -2.0546   -1.2218   -0.0006 C   0  0  0  0  0  0  0  0  0  0  0  0
   -2.7559   -0.0161    0.0009 C   0  0  0  0  0  0  0  0  0  0  0  0
   -0.1496    2.1541    0.0028 H   0  0  0  0  0  0  0  0  0  0  0  0
   -0.1752   -2.1869   -0.0021 H   0  0  0  0  0  0  0  0  0  0  0  0
   -2.6084    2.1328    0.0033 H   0  0  0  0  0  0  0  0  0  0  0  0
   -2.5957   -2.1636   -0.0013 H   0  0  0  0  0  0  0  0  0  0  0  0
   -3.8419   -0.0195    0.0014 H   0  0  0  0  0  0  0  0  0  0  0  0
  1  7  1  0  0  0  0
  2  7  1  0  0  0  0
  3  7  1  0  0  0  0
  4  5  2  0  0  0  0
  4  6  1  0  0  0  0
  4  7  1  0  0  0  0
  5  8  1  0  0  0  0
  5 11  1  0  0  0  0
  6  9  2  0  0  0  0
  6 12  1  0  0  0  0
  8 10  2  0  0  0  0
  8 13  1  0  0  0  0
  9 10  1  0  0  0  0
  9 14  1  0  0  0  0
 10 15  1  0  0  0  0
M  END
> <PUBCHEM_COMPOUND_CID>
7367

> <PUBCHEM_CONFORMER_RMSD>
0.4

> <PUBCHEM_CONFORMER_DIVERSEORDER>
1

> <PUBCHEM_MMFF94_PARTIAL_CHARGES>
15
1 -0.29
10 -0.15
11 0.15
12 0.15
13 0.15
14 0.15
15 0.15
2 -0.29
3 -0.29
4 -0.14
5 -0.15
6 -0.15
7 1.01
8 -0.15
9 -0.15

> <PUBCHEM_EFFECTIVE_ROTOR_COUNT>
1

> <PUBCHEM_PHARMACOPHORE_FEATURES>
1
6 4 5 6 8 9 10 rings

> <PUBCHEM_HEAVY_ATOM_COUNT>
10

> <PUBCHEM_ATOM_DEF_STEREO_COUNT>
0

> <PUBCHEM_ATOM_UDEF_STEREO_COUNT>
0

> <PUBCHEM_BOND_DEF_STEREO_COUNT>
0

> <PUBCHEM_BOND_UDEF_STEREO_COUNT>
0

> <PUBCHEM_ISOTOPIC_ATOM_COUNT>
0

> <PUBCHEM_COMPONENT_COUNT>
1

> <PUBCHEM_CACTVS_TAUTO_COUNT>
1

> <PUBCHEM_CONFORMER_ID>
00001CC700000001

> <PUBCHEM_MMFF94_ENERGY>
24.7353

> <PUBCHEM_FEATURE_SELFOVERLAP>
5.074

> <PUBCHEM_SHAPE_FINGERPRINT>
10857977 72 18265341616237232897
12326174 3 16660644059790151566
12423570 1 12933860843130401310
12716758 59 18338240461235023443
12897270 3 18269260284136770404
12932741 1 17676764297061161540
12932764 1 18040429971440363223
14128692 85 18267574879146388702
16945 1 18338516314110079973
20082192 1 17846506936622330588
20645464 45 17822297846589001616
20653085 51 17346319349251482773
20711985 344 16519594456166853992
207724 885 17915453020228204298
21040471 1 18410574028317492865
23211744 41 17388552501338762792
23552423 10 18201435899912659687
2748010 2 18410014359792964863
3248919 1 18059861636148368859
369184 2 18040444290929795979
5084963 1 18270398420320971489
7364860 26 18409727357493992116
8030462 33 18408885122517159319

> <PUBCHEM_SHAPE_MULTIPOLES>
211.4
4.06
1.63
1.08
0.51
0.35
0
0.1
0
-0.18
-0.01
-0.98
-0.39
0

> <PUBCHEM_SHAPE_SELFOVERLAP>
406.691

> <PUBCHEM_SHAPE_VOLUME>
125.1

> <PUBCHEM_COORDINATE_TYPE>
2
5
10

$$$$

