4049
  -OEChem-06251223502D

 30 29  0     1  0  0  0  0  0999 V2000
    5.4641   -1.2500    0.0000 O   0  0  0  0  0  0  0  0  0  0  0  0
    6.3301    1.2500    0.0000 O   0  0  0  0  0  0  0  0  0  0  0  0
    4.5981    1.2500    0.0000 O   0  0  0  0  0  0  0  0  0  0  0  0
    7.1962   -1.2500    0.0000 O   0  0  0  0  0  0  0  0  0  0  0  0
    8.9282   -0.2500    0.0000 O   0  0  0  0  0  0  0  0  0  0  0  0
    2.8660    0.2500    0.0000 N   0  0  0  0  0  0  0  0  0  0  0  0
    5.4641   -0.2500    0.0000 C   0  0  3  0  0  0  0  0  0  0  0  0
    6.3301    0.2500    0.0000 C   0  0  3  0  0  0  0  0  0  0  0  0
    4.5981    0.2500    0.0000 C   0  0  3  0  0  0  0  0  0  0  0  0
    7.1962   -0.2500    0.0000 C   0  0  3  0  0  0  0  0  0  0  0  0
    3.7320   -0.2500    0.0000 C   0  0  0  0  0  0  0  0  0  0  0  0
    8.0622    0.2500    0.0000 C   0  0  0  0  0  0  0  0  0  0  0  0
    2.0000   -0.2500    0.0000 C   0  0  0  0  0  0  0  0  0  0  0  0
    6.2002   -0.6750    0.0000 H   0  0  0  0  0  0  0  0  0  0  0  0
    7.0662    0.6750    0.0000 H   0  0  0  0  0  0  0  0  0  0  0  0
    5.3342    0.6750    0.0000 H   0  0  0  0  0  0  0  0  0  0  0  0
    6.4600   -0.6750    0.0000 H   0  0  0  0  0  0  0  0  0  0  0  0
    3.3335   -0.7249    0.0000 H   0  0  0  0  0  0  0  0  0  0  0  0
    4.1306   -0.7249    0.0000 H   0  0  0  0  0  0  0  0  0  0  0  0
    8.4607    0.7249    0.0000 H   0  0  0  0  0  0  0  0  0  0  0  0
    7.6636    0.7249    0.0000 H   0  0  0  0  0  0  0  0  0  0  0  0
    4.9272   -1.5600    0.0000 H   0  0  0  0  0  0  0  0  0  0  0  0
    6.8671    1.5600    0.0000 H   0  0  0  0  0  0  0  0  0  0  0  0
    2.8660    0.8700    0.0000 H   0  0  0  0  0  0  0  0  0  0  0  0
    4.0611    1.5600    0.0000 H   0  0  0  0  0  0  0  0  0  0  0  0
    7.7331   -1.5600    0.0000 H   0  0  0  0  0  0  0  0  0  0  0  0
    1.6900    0.2869    0.0000 H   0  0  0  0  0  0  0  0  0  0  0  0
    1.4631   -0.5600    0.0000 H   0  0  0  0  0  0  0  0  0  0  0  0
    2.3100   -0.7869    0.0000 H   0  0  0  0  0  0  0  0  0  0  0  0
    9.4651    0.0600    0.0000 H   0  0  0  0  0  0  0  0  0  0  0  0
  1  7  1  0  0  0  0
  1 22  1  0  0  0  0
  2  8  1  0  0  0  0
  2 23  1  0  0  0  0
  3  9  1  0  0  0  0
  3 25  1  0  0  0  0
  4 10  1  0  0  0  0
  4 26  1  0  0  0  0
  5 12  1  0  0  0  0
  5 30  1  0  0  0  0
  6 11  1  0  0  0  0
  6 13  1  0  0  0  0
  6 24  1  0  0  0  0
  7  8  1  0  0  0  0
  7  9  1  0  0  0  0
  7 14  1  0  0  0  0
  8 10  1  0  0  0  0
  8 15  1  0  0  0  0
  9 11  1  0  0  0  0
  9 16  1  0  0  0  0
 10 12  1  0  0  0  0
 10 17  1  0  0  0  0
 11 18  1  0  0  0  0
 11 19  1  0  0  0  0
 12 20  1  0  0  0  0
 12 21  1  0  0  0  0
 13 27  1  0  0  0  0
 13 28  1  0  0  0  0
 13 29  1  0  0  0  0
M  END
> <PUBCHEM_COMPOUND_CID>
4049

> <PUBCHEM_COMPOUND_CANONICALIZED>
1

> <PUBCHEM_CACTVS_COMPLEXITY>
134

> <PUBCHEM_CACTVS_HBOND_ACCEPTOR>
6

> <PUBCHEM_CACTVS_HBOND_DONOR>
6

> <PUBCHEM_CACTVS_ROTATABLE_BOND>
6

> <PUBCHEM_CACTVS_SUBSKEYS>
AAADceBiOAAAAAAAAAAAAAAAAAAAAAAAAAAAAAAAAAAAAAAAAAAAHgAQCAAACBThgAYCAALAAgAAAAAAAAAAAAAAAAAAAIAIAAADEAIAgAAEQAAHEAARAAHwcAYAAAAAAAAAAAAAAAAAAAAAAAAAAAAAAA==

> <PUBCHEM_IUPAC_OPENEYE_NAME>
6-(methylamino)hexane-1,2,3,4,5-pentol

> <PUBCHEM_IUPAC_CAS_NAME>
6-(methylamino)hexane-1,2,3,4,5-pentol

> <PUBCHEM_IUPAC_NAME>
6-(methylamino)hexane-1,2,3,4,5-pentol

> <PUBCHEM_IUPAC_SYSTEMATIC_NAME>
6-(methylamino)hexane-1,2,3,4,5-pentol

> <PUBCHEM_IUPAC_TRADITIONAL_NAME>
6-(methylamino)hexane-1,2,3,4,5-pentol

> <PUBCHEM_IUPAC_INCHI>
InChI=1S/C7H17NO5/c1-8-2-4(10)6(12)7(13)5(11)3-9/h4-13H,2-3H2,1H3

> <PUBCHEM_IUPAC_INCHIKEY>
MBBZMMPHUWSWHV-UHFFFAOYSA-N

> <PUBCHEM_XLOGP3>
-2.8

> <PUBCHEM_EXACT_MASS>
195.110673

> <PUBCHEM_MOLECULAR_FORMULA>
C7H17NO5

> <PUBCHEM_MOLECULAR_WEIGHT>
195.21358

> <PUBCHEM_OPENEYE_CAN_SMILES>
CNCC(C(C(C(CO)O)O)O)O

> <PUBCHEM_OPENEYE_ISO_SMILES>
CNCC(C(C(C(CO)O)O)O)O

> <PUBCHEM_CACTVS_TPSA>
113

> <PUBCHEM_MONOISOTOPIC_WEIGHT>
195.110673

> <PUBCHEM_TOTAL_CHARGE>
0

> <PUBCHEM_HEAVY_ATOM_COUNT>
13

> <PUBCHEM_ATOM_DEF_STEREO_COUNT>
0

> <PUBCHEM_ATOM_UDEF_STEREO_COUNT>
4

> <PUBCHEM_BOND_DEF_STEREO_COUNT>
0

> <PUBCHEM_BOND_UDEF_STEREO_COUNT>
0

> <PUBCHEM_ISOTOPIC_ATOM_COUNT>
0

> <PUBCHEM_COMPONENT_COUNT>
1

> <PUBCHEM_CACTVS_TAUTO_COUNT>
1

> <PUBCHEM_COORDINATE_TYPE>
1
5
255

> <PUBCHEM_BONDANNOTATIONS>
10  17  3
7  14  3
8  15  3
9  16  3

$$$$

