9799
  -OEChem-06261204042D

 59 62  0     1  0  0  0  0  0999 V2000
    5.6489   -3.5791    0.0000 F   0  0  0  0  0  0  0  0  0  0  0  0
    8.0319    1.7465    0.0000 O   0  0  0  0  0  0  0  0  0  0  0  0
    4.7950    0.9902    0.0000 O   0  0  0  0  0  0  0  0  0  0  0  0
   10.0622    0.9730    0.0000 O   0  0  0  0  0  0  0  0  0  0  0  0
    9.8566    2.9624    0.0000 O   0  0  0  0  0  0  0  0  0  0  0  0
    2.0000   -2.5622    0.0000 O   0  0  0  0  0  0  0  0  0  0  0  0
    7.3931    0.4902    0.0000 C   0  0  3  0  0  0  0  0  0  0  0  0
    7.3931   -0.5098    0.0000 C   0  0  3  0  0  0  0  0  0  0  0  0
    6.5271   -1.0098    0.0000 C   0  0  3  0  0  0  0  0  0  0  0  0
    5.6610   -0.5098    0.0000 C   0  0  3  0  0  0  0  0  0  0  0  0
    8.3393    0.7949    0.0000 C   0  0  1  0  0  0  0  0  0  0  0  0
    6.5271    0.9902    0.0000 C   0  0  0  0  0  0  0  0  0  0  0  0
    8.3393   -0.8146    0.0000 C   0  0  0  0  0  0  0  0  0  0  0  0
    8.9229   -0.0098    0.0000 C   0  0  1  0  0  0  0  0  0  0  0  0
    4.7510   -1.0167    0.0000 C   0  0  3  0  0  0  0  0  0  0  0  0
    5.6610    0.4902    0.0000 C   0  0  3  0  0  0  0  0  0  0  0  0
    6.5431   -2.0513    0.0000 C   0  0  0  0  0  0  0  0  0  0  0  0
    7.3931    1.4902    0.0000 C   0  0  0  0  0  0  0  0  0  0  0  0
    4.7430   -2.0583    0.0000 C   0  0  0  0  0  0  0  0  0  0  0  0
    5.6451   -2.5791    0.0000 C   0  0  1  0  0  0  0  0  0  0  0  0
    3.8242   -0.4526    0.0000 C   0  0  0  0  0  0  0  0  0  0  0  0
    9.1493    1.3813    0.0000 C   0  0  0  0  0  0  0  0  0  0  0  0
    4.7587   -0.0167    0.0000 C   0  0  0  0  0  0  0  0  0  0  0  0
    9.9229   -0.0098    0.0000 C   0  0  0  0  0  0  0  0  0  0  0  0
    2.8763   -0.9805    0.0000 C   0  0  0  0  0  0  0  0  0  0  0  0
    3.8076   -2.6080    0.0000 C   0  0  0  0  0  0  0  0  0  0  0  0
    2.8680   -2.0655    0.0000 C   0  0  0  0  0  0  0  0  0  0  0  0
    9.0465    2.3760    0.0000 C   0  0  0  0  0  0  0  0  0  0  0  0
    7.4830   -1.3551    0.0000 H   0  0  0  0  0  0  0  0  0  0  0  0
    7.2664   -1.4291    0.0000 H   0  0  0  0  0  0  0  0  0  0  0  0
    6.3972   -0.0848    0.0000 H   0  0  0  0  0  0  0  0  0  0  0  0
    6.9256    1.4651    0.0000 H   0  0  0  0  0  0  0  0  0  0  0  0
    6.1285    1.4651    0.0000 H   0  0  0  0  0  0  0  0  0  0  0  0
    8.0883   -1.3815    0.0000 H   0  0  0  0  0  0  0  0  0  0  0  0
    8.8767   -1.1238    0.0000 H   0  0  0  0  0  0  0  0  0  0  0  0
    9.2046   -0.5621    0.0000 H   0  0  0  0  0  0  0  0  0  0  0  0
    5.6610    1.3402    0.0000 H   0  0  0  0  0  0  0  0  0  0  0  0
    6.7612   -2.6317    0.0000 H   0  0  0  0  0  0  0  0  0  0  0  0
    7.1523   -1.9358    0.0000 H   0  0  0  0  0  0  0  0  0  0  0  0
    8.0131    1.4902    0.0000 H   0  0  0  0  0  0  0  0  0  0  0  0
    7.3931    2.1102    0.0000 H   0  0  0  0  0  0  0  0  0  0  0  0
    6.7731    1.4902    0.0000 H   0  0  0  0  0  0  0  0  0  0  0  0
    5.1087   -2.8901    0.0000 H   0  0  0  0  0  0  0  0  0  0  0  0
    4.2324    0.0141    0.0000 H   0  0  0  0  0  0  0  0  0  0  0  0
    3.4343    0.0294    0.0000 H   0  0  0  0  0  0  0  0  0  0  0  0
    5.3787   -0.0215    0.0000 H   0  0  0  0  0  0  0  0  0  0  0  0
    4.7635    0.6033    0.0000 H   0  0  0  0  0  0  0  0  0  0  0  0
    4.1388   -0.0119    0.0000 H   0  0  0  0  0  0  0  0  0  0  0  0
    9.9229   -0.6298    0.0000 H   0  0  0  0  0  0  0  0  0  0  0  0
   10.5429   -0.0098    0.0000 H   0  0  0  0  0  0  0  0  0  0  0  0
    9.9229    0.6102    0.0000 H   0  0  0  0  0  0  0  0  0  0  0  0
    8.4476    2.2065    0.0000 H   0  0  0  0  0  0  0  0  0  0  0  0
    4.7950    1.6102    0.0000 H   0  0  0  0  0  0  0  0  0  0  0  0
    2.6718   -0.3953    0.0000 H   0  0  0  0  0  0  0  0  0  0  0  0
    2.2647   -1.0819    0.0000 H   0  0  0  0  0  0  0  0  0  0  0  0
    3.8100   -3.2280    0.0000 H   0  0  0  0  0  0  0  0  0  0  0  0
    8.7757    2.9337    0.0000 H   0  0  0  0  0  0  0  0  0  0  0  0
    8.4502    2.2061    0.0000 H   0  0  0  0  0  0  0  0  0  0  0  0
    9.7928    3.5791    0.0000 H   0  0  0  0  0  0  0  0  0  0  0  0
 20  1  1  6  0  0  0
 11  2  1  6  0  0  0
  2 52  1  0  0  0  0
  3 16  1  0  0  0  0
  3 53  1  0  0  0  0
  4 22  2  0  0  0  0
  5 28  1  0  0  0  0
  5 59  1  0  0  0  0
  6 27  2  0  0  0  0
  7  8  1  0  0  0  0
  7 11  1  0  0  0  0
  7 12  1  0  0  0  0
  7 18  1  0  0  0  0
  8  9  1  0  0  0  0
  8 13  1  0  0  0  0
  8 29  1  0  0  0  0
  9 10  1  0  0  0  0
  9 17  1  0  0  0  0
  9 30  1  0  0  0  0
 10 15  1  0  0  0  0
 10 16  1  0  0  0  0
 10 31  1  0  0  0  0
 11 14  1  0  0  0  0
 11 22  1  0  0  0  0
 12 16  1  0  0  0  0
 12 32  1  0  0  0  0
 12 33  1  0  0  0  0
 13 14  1  0  0  0  0
 13 34  1  0  0  0  0
 13 35  1  0  0  0  0
 14 24  1  6  0  0  0
 14 36  1  0  0  0  0
 15 19  1  0  0  0  0
 15 21  1  0  0  0  0
 15 23  1  0  0  0  0
 16 37  1  0  0  0  0
 17 20  1  0  0  0  0
 17 38  1  0  0  0  0
 17 39  1  0  0  0  0
 18 40  1  0  0  0  0
 18 41  1  0  0  0  0
 18 42  1  0  0  0  0
 19 20  1  0  0  0  0
 19 26  2  0  0  0  0
 20 43  1  0  0  0  0
 21 25  1  0  0  0  0
 21 44  1  0  0  0  0
 21 45  1  0  0  0  0
 22 28  1  0  0  0  0
 23 46  1  0  0  0  0
 23 47  1  0  0  0  0
 23 48  1  0  0  0  0
 24 49  1  0  0  0  0
 24 50  1  0  0  0  0
 24 51  1  0  0  0  0
 25 27  1  0  0  0  0
 25 54  1  0  0  0  0
 25 55  1  0  0  0  0
 26 27  1  0  0  0  0
 26 56  1  0  0  0  0
 28 57  1  0  0  0  0
 28 58  1  0  0  0  0
M  END
> <PUBCHEM_COMPOUND_CID>
9799

> <PUBCHEM_COMPOUND_CANONICALIZED>
1

> <PUBCHEM_CACTVS_COMPLEXITY>
749

> <PUBCHEM_CACTVS_HBOND_ACCEPTOR>
6

> <PUBCHEM_CACTVS_HBOND_DONOR>
3

> <PUBCHEM_CACTVS_ROTATABLE_BOND>
2

> <PUBCHEM_CACTVS_SUBSKEYS>
AAADceB4OQAAAAAAAAAAAAAAAAAAAYAAAAAwYIAAAAAAAGDAAAAAGwAACAAAD1SggAICAAAAAgCIAqBSAAIAAAAgAAAACAFAAEgAEBIAAQAAQAAFgAAIAQPIzPDPgAAAAAAAAADAAAYAADAAAYAADAAAAA==

> <PUBCHEM_IUPAC_OPENEYE_NAME>
(6S,16R,17R)-6-fluoro-11,17-dihydroxy-17-(2-hydroxyacetyl)-10,13,16-trimethyl-2,6,7,8,9,11,12,14,15,16-decahydro-1H-cyclopenta[a]phenanthren-3-one

> <PUBCHEM_IUPAC_CAS_NAME>
(6S,16R,17R)-6-fluoro-11,17-dihydroxy-17-(2-hydroxy-1-oxoethyl)-10,13,16-trimethyl-2,6,7,8,9,11,12,14,15,16-decahydro-1H-cyclopenta[a]phenanthren-3-one

> <PUBCHEM_IUPAC_NAME>
(6S,16R,17R)-6-fluoro-11,17-dihydroxy-17-(2-hydroxyacetyl)-10,13,16-trimethyl-2,6,7,8,9,11,12,14,15,16-decahydro-1H-cyclopenta[a]phenanthren-3-one

> <PUBCHEM_IUPAC_SYSTEMATIC_NAME>
(6S,16R,17R)-6-fluoranyl-10,13,16-trimethyl-11,17-bis(oxidanyl)-17-(2-oxidanylethanoyl)-2,6,7,8,9,11,12,14,15,16-decahydro-1H-cyclopenta[a]phenanthren-3-one

> <PUBCHEM_IUPAC_TRADITIONAL_NAME>
(6S,16R,17R)-6-fluoro-17-glycoloyl-11,17-dihydroxy-10,13,16-trimethyl-2,6,7,8,9,11,12,14,15,16-decahydro-1H-cyclopenta[a]phenanthren-3-one

> <PUBCHEM_IUPAC_INCHI>
InChI=1S/C22H31FO5/c1-11-6-14-13-8-16(23)15-7-12(25)4-5-20(15,2)19(13)17(26)9-21(14,3)22(11,28)18(27)10-24/h7,11,13-14,16-17,19,24,26,28H,4-6,8-10H2,1-3H3/t11-,13?,14?,16+,17?,19?,20?,21?,22+/m1/s1

> <PUBCHEM_IUPAC_INCHIKEY>
JXOONFORBFAKIN-KTTHZPTNSA-N

> <PUBCHEM_XLOGP3_AA>
1.8

> <PUBCHEM_EXACT_MASS>
394.215552

> <PUBCHEM_MOLECULAR_FORMULA>
C22H31FO5

> <PUBCHEM_MOLECULAR_WEIGHT>
394.476943

> <PUBCHEM_OPENEYE_CAN_SMILES>
CC1CC2C3CC(C4=CC(=O)CCC4(C3C(CC2(C1(C(=O)CO)O)C)O)C)F

> <PUBCHEM_OPENEYE_ISO_SMILES>
C[C@@H]1CC2C3C[C@@H](C4=CC(=O)CCC4(C3C(CC2([C@]1(C(=O)CO)O)C)O)C)F

> <PUBCHEM_CACTVS_TPSA>
94.8

> <PUBCHEM_MONOISOTOPIC_WEIGHT>
394.215552

> <PUBCHEM_TOTAL_CHARGE>
0

> <PUBCHEM_HEAVY_ATOM_COUNT>
28

> <PUBCHEM_ATOM_DEF_STEREO_COUNT>
3

> <PUBCHEM_ATOM_UDEF_STEREO_COUNT>
6

> <PUBCHEM_BOND_DEF_STEREO_COUNT>
0

> <PUBCHEM_BOND_UDEF_STEREO_COUNT>
0

> <PUBCHEM_ISOTOPIC_ATOM_COUNT>
0

> <PUBCHEM_COMPONENT_COUNT>
1

> <PUBCHEM_CACTVS_TAUTO_COUNT>
6

> <PUBCHEM_COORDINATE_TYPE>
1
5
255

> <PUBCHEM_BONDANNOTATIONS>
20  1  6
10  31  3
14  24  6
15  23  3
16  37  3
11  2  6
7  18  3
8  29  3
9  30  3

$$$$

