8353
  -OEChem-06261202462D

 31 32  0     0  0  0  0  0  0999 V2000
    8.9942    1.2350    0.0000 S   0  0  0  0  0  0  0  0  0  0  0  0
    3.7320    1.2109    0.0000 O   0  0  0  0  0  0  0  0  0  0  0  0
    9.8583    1.7384    0.0000 O   0  0  0  0  0  0  0  0  0  0  0  0
    9.4976    0.3709    0.0000 O   0  0  0  0  0  0  0  0  0  0  0  0
    8.4909    2.0991    0.0000 O   0  0  0  0  0  0  0  0  0  0  0  0
    5.4641   -1.7891    0.0000 N   0  0  0  0  0  0  0  0  0  0  0  0
    6.3301    0.7109    0.0000 C   0  0  0  0  0  0  0  0  0  0  0  0
    6.3301   -0.2891    0.0000 C   0  0  0  0  0  0  0  0  0  0  0  0
    5.4641   -0.7891    0.0000 C   0  0  0  0  0  0  0  0  0  0  0  0
    7.2241    1.2455    0.0000 C   0  0  0  0  0  0  0  0  0  0  0  0
    8.1301    0.7317    0.0000 C   0  0  0  0  0  0  0  0  0  0  0  0
    5.4641    1.2109    0.0000 C   0  0  0  0  0  0  0  0  0  0  0  0
    7.2241   -0.8238    0.0000 C   0  0  0  0  0  0  0  0  0  0  0  0
    4.5981    0.7109    0.0000 C   0  0  0  0  0  0  0  0  0  0  0  0
    8.1301   -0.3099    0.0000 C   0  0  0  0  0  0  0  0  0  0  0  0
    4.5981   -0.2891    0.0000 C   0  0  0  0  0  0  0  0  0  0  0  0
    2.8660    0.7109    0.0000 C   0  0  0  0  0  0  0  0  0  0  0  0
    2.0000    1.2109    0.0000 C   0  0  0  0  0  0  0  0  0  0  0  0
    7.2169    1.8655    0.0000 H   0  0  0  0  0  0  0  0  0  0  0  0
    5.4641    1.8309    0.0000 H   0  0  0  0  0  0  0  0  0  0  0  0
    7.2169   -1.4437    0.0000 H   0  0  0  0  0  0  0  0  0  0  0  0
    8.6659   -0.6220    0.0000 H   0  0  0  0  0  0  0  0  0  0  0  0
    4.0611   -0.5991    0.0000 H   0  0  0  0  0  0  0  0  0  0  0  0
    4.9272   -2.0991    0.0000 H   0  0  0  0  0  0  0  0  0  0  0  0
    6.0010   -2.0991    0.0000 H   0  0  0  0  0  0  0  0  0  0  0  0
    2.4675    0.2359    0.0000 H   0  0  0  0  0  0  0  0  0  0  0  0
    3.2646    0.2359    0.0000 H   0  0  0  0  0  0  0  0  0  0  0  0
    2.3100    1.7478    0.0000 H   0  0  0  0  0  0  0  0  0  0  0  0
    1.4631    1.5209    0.0000 H   0  0  0  0  0  0  0  0  0  0  0  0
    1.6900    0.6739    0.0000 H   0  0  0  0  0  0  0  0  0  0  0  0
   10.3964    1.4304    0.0000 H   0  0  0  0  0  0  0  0  0  0  0  0
  1  3  1  0  0  0  0
  1  4  2  0  0  0  0
  1  5  2  0  0  0  0
  1 11  1  0  0  0  0
  2 14  1  0  0  0  0
  2 17  1  0  0  0  0
  3 31  1  0  0  0  0
  6  9  1  0  0  0  0
  6 24  1  0  0  0  0
  6 25  1  0  0  0  0
  7  8  1  0  0  0  0
  7 10  1  0  0  0  0
  7 12  2  0  0  0  0
  8  9  2  0  0  0  0
  8 13  1  0  0  0  0
  9 16  1  0  0  0  0
 10 11  2  0  0  0  0
 10 19  1  0  0  0  0
 11 15  1  0  0  0  0
 12 14  1  0  0  0  0
 12 20  1  0  0  0  0
 13 15  2  0  0  0  0
 13 21  1  0  0  0  0
 14 16  2  0  0  0  0
 15 22  1  0  0  0  0
 16 23  1  0  0  0  0
 17 18  1  0  0  0  0
 17 26  1  0  0  0  0
 17 27  1  0  0  0  0
 18 28  1  0  0  0  0
 18 29  1  0  0  0  0
 18 30  1  0  0  0  0
M  END
> <PUBCHEM_COMPOUND_CID>
8353

> <PUBCHEM_COMPOUND_CANONICALIZED>
1

> <PUBCHEM_CACTVS_COMPLEXITY>
378

> <PUBCHEM_CACTVS_HBOND_ACCEPTOR>
5

> <PUBCHEM_CACTVS_HBOND_DONOR>
2

> <PUBCHEM_CACTVS_ROTATABLE_BOND>
3

> <PUBCHEM_CACTVS_SUBSKEYS>
AAADccByOABAAAAAAAAAAAAAAAAAAAAAAAAwYAAAAAAAAADBUAAAHgQQCAAADAyh2AIyx8BABIKAAiRCQHDCCEAgIgAIiBgGbIgMJiKEsZuCOCDm0BkI6AeQ0LEOsAABwgASAABgAAOEACQAAAAAAAAAAA==

> <PUBCHEM_IUPAC_OPENEYE_NAME>
5-amino-7-ethoxy-naphthalene-2-sulfonic acid

> <PUBCHEM_IUPAC_CAS_NAME>
5-amino-7-ethoxy-2-naphthalenesulfonic acid

> <PUBCHEM_IUPAC_NAME>
5-amino-7-ethoxynaphthalene-2-sulfonic acid

> <PUBCHEM_IUPAC_SYSTEMATIC_NAME>
5-azanyl-7-ethoxy-naphthalene-2-sulfonic acid

> <PUBCHEM_IUPAC_TRADITIONAL_NAME>
5-amino-7-ethoxy-naphthalene-2-sulfonic acid

> <PUBCHEM_IUPAC_INCHI>
InChI=1S/C12H13NO4S/c1-2-17-9-5-8-6-10(18(14,15)16)3-4-11(8)12(13)7-9/h3-7H,2,13H2,1H3,(H,14,15,16)

> <PUBCHEM_IUPAC_INCHIKEY>
UCAVAHQRGOTNJB-UHFFFAOYSA-N

> <PUBCHEM_XLOGP3_AA>
1.6

> <PUBCHEM_EXACT_MASS>
267.056529

> <PUBCHEM_MOLECULAR_FORMULA>
C12H13NO4S

> <PUBCHEM_MOLECULAR_WEIGHT>
267.30092

> <PUBCHEM_OPENEYE_CAN_SMILES>
CCOC1=CC(=C2C=CC(=CC2=C1)S(=O)(=O)O)N

> <PUBCHEM_OPENEYE_ISO_SMILES>
CCOC1=CC(=C2C=CC(=CC2=C1)S(=O)(=O)O)N

> <PUBCHEM_CACTVS_TPSA>
98

> <PUBCHEM_MONOISOTOPIC_WEIGHT>
267.056529

> <PUBCHEM_TOTAL_CHARGE>
0

> <PUBCHEM_HEAVY_ATOM_COUNT>
18

> <PUBCHEM_ATOM_DEF_STEREO_COUNT>
0

> <PUBCHEM_ATOM_UDEF_STEREO_COUNT>
0

> <PUBCHEM_BOND_DEF_STEREO_COUNT>
0

> <PUBCHEM_BOND_UDEF_STEREO_COUNT>
0

> <PUBCHEM_ISOTOPIC_ATOM_COUNT>
0

> <PUBCHEM_COMPONENT_COUNT>
1

> <PUBCHEM_CACTVS_TAUTO_COUNT>
1

> <PUBCHEM_COORDINATE_TYPE>
1
5
255

> <PUBCHEM_BONDANNOTATIONS>
10  11  8
11  15  8
12  14  8
13  15  8
14  16  8
7  10  8
7  12  8
7  8  8
8  13  8
8  9  8
9  16  8

$$$$

