12078
  -OEChem-06261206293D

 17 17  0     0  0  0  0  0  0999 V2000
    3.4172    1.3137    0.9109 Cl  0  0  0  0  0  0  0  0  0  0  0  0
   -3.2483   -0.0689    0.2687 O   0  5  0  0  0  0  0  0  0  0  0  0
   -2.2406    1.8378   -0.1414 O   0  0  0  0  0  0  0  0  0  0  0  0
   -2.2095    0.5962    0.0385 N   0  3  0  0  0  0  0  0  0  0  0  0
    1.4343   -0.0196   -0.3342 C   0  0  0  0  0  0  0  0  0  0  0  0
    0.2075    0.6418   -0.2756 C   0  0  0  0  0  0  0  0  0  0  0  0
   -0.9604   -0.0764   -0.0198 C   0  0  0  0  0  0  0  0  0  0  0  0
    1.4929   -1.3992   -0.1370 C   0  0  0  0  0  0  0  0  0  0  0  0
   -0.9018   -1.4560    0.1774 C   0  0  0  0  0  0  0  0  0  0  0  0
    0.3249   -2.1174    0.1190 C   0  0  0  0  0  0  0  0  0  0  0  0
    2.6837    0.7480   -0.6067 C   0  0  0  0  0  0  0  0  0  0  0  0
    0.1865    1.7181   -0.4311 H   0  0  0  0  0  0  0  0  0  0  0  0
    2.4425   -1.9261   -0.1786 H   0  0  0  0  0  0  0  0  0  0  0  0
   -1.7909   -2.0480    0.3788 H   0  0  0  0  0  0  0  0  0  0  0  0
    2.4854    1.6225   -1.2354 H   0  0  0  0  0  0  0  0  0  0  0  0
    3.4218    0.1329   -1.1322 H   0  0  0  0  0  0  0  0  0  0  0  0
    0.3710   -3.1916    0.2729 H   0  0  0  0  0  0  0  0  0  0  0  0
  1 11  1  0  0  0  0
  2  4  1  0  0  0  0
  3  4  2  0  0  0  0
  4  7  1  0  0  0  0
  5  6  2  0  0  0  0
  5  8  1  0  0  0  0
  5 11  1  0  0  0  0
  6  7  1  0  0  0  0
  6 12  1  0  0  0  0
  7  9  2  0  0  0  0
  8 10  2  0  0  0  0
  8 13  1  0  0  0  0
  9 10  1  0  0  0  0
  9 14  1  0  0  0  0
 10 17  1  0  0  0  0
 11 15  1  0  0  0  0
 11 16  1  0  0  0  0
M  CHG  2   2  -1   4   1
M  END
> <PUBCHEM_COMPOUND_CID>
12078

> <PUBCHEM_CONFORMER_RMSD>
0.4

> <PUBCHEM_CONFORMER_DIVERSEORDER>
1
4
3
2

> <PUBCHEM_MMFF94_PARTIAL_CHARGES>
15
1 -0.29
10 -0.15
11 0.43
12 0.15
13 0.15
14 0.15
17 0.15
2 -0.52
3 -0.52
4 0.91
5 -0.14
6 -0.15
7 0.13
8 -0.15
9 -0.15

> <PUBCHEM_EFFECTIVE_ROTOR_COUNT>
2

> <PUBCHEM_PHARMACOPHORE_FEATURES>
4
1 2 acceptor
1 2 anion
1 3 acceptor
6 5 6 7 8 9 10 rings

> <PUBCHEM_HEAVY_ATOM_COUNT>
11

> <PUBCHEM_ATOM_DEF_STEREO_COUNT>
0

> <PUBCHEM_ATOM_UDEF_STEREO_COUNT>
0

> <PUBCHEM_BOND_DEF_STEREO_COUNT>
0

> <PUBCHEM_BOND_UDEF_STEREO_COUNT>
0

> <PUBCHEM_ISOTOPIC_ATOM_COUNT>
0

> <PUBCHEM_COMPONENT_COUNT>
1

> <PUBCHEM_CACTVS_TAUTO_COUNT>
1

> <PUBCHEM_CONFORMER_ID>
00002F2E00000001

> <PUBCHEM_MMFF94_ENERGY>
28.6669

> <PUBCHEM_FEATURE_SELFOVERLAP>
20.379

> <PUBCHEM_SHAPE_FINGERPRINT>
12423570 1 10086774997528690030
13380535 76 18411702054170155326
14325111 11 18411978091654692957
14390081 3 18334575750082509476
15775835 57 18261107469809671969
16945 1 18269827632020729510
20645464 45 18187643544955523312
20871998 184 18046617906870247766
21028194 46 18409162216795961380
21040471 1 18341043056223719734
21524375 3 18408606946265281278
230 275 18413387657129744836
23211744 41 18260263049179697812
23235685 24 18412265012707918268
23402539 116 17973738981930847615
23552423 10 18126559252872037623
2748010 2 18270110344042902127
305870 269 18342184409475517482
3071541 236 18057051211381973426
53812653 166 18261674774991826472
6333449 129 18190745236818265958
7364860 26 18190179181809536318

> <PUBCHEM_SHAPE_MULTIPOLES>
211.52
4.54
1.95
0.75
0.69
0.57
-0.04
-2.6
-0.77
-0.21
-0.11
0.42
-0.09
0.32

> <PUBCHEM_SHAPE_SELFOVERLAP>
429.678

> <PUBCHEM_SHAPE_VOLUME>
124.7

> <PUBCHEM_COORDINATE_TYPE>
2
5
10

$$$$

