3699
  -OEChem-06251223362D

 36 36  0     0  0  0  0  0  0999 V2000
    6.6906    0.1397    0.0000 P   0  0  0  0  0  0  0  0  0  0  0  0
    5.1906   -0.7263    0.0000 P   0  0  0  0  0  0  0  0  0  0  0  0
    7.6906    0.1397    0.0000 O   0  0  0  0  0  0  0  0  0  0  0  0
    6.6906   -0.8603    0.0000 O   0  0  0  0  0  0  0  0  0  0  0  0
    4.6906   -1.5923    0.0000 O   0  0  0  0  0  0  0  0  0  0  0  0
    6.0567   -1.2263    0.0000 O   0  0  0  0  0  0  0  0  0  0  0  0
    6.6906    1.1397    0.0000 O   0  0  0  0  0  0  0  0  0  0  0  0
    4.3246   -0.2263    0.0000 O   0  0  0  0  0  0  0  0  0  0  0  0
    5.1906    1.0058    0.0000 N   0  0  0  0  0  0  0  0  0  0  0  0
    4.1906    1.0058    0.0000 C   0  0  0  0  0  0  0  0  0  0  0  0
    3.7568    0.1048    0.0000 C   0  0  0  0  0  0  0  0  0  0  0  0
    3.7568    1.9067    0.0000 C   0  0  0  0  0  0  0  0  0  0  0  0
    2.7818   -0.1177    0.0000 C   0  0  0  0  0  0  0  0  0  0  0  0
    2.7818    2.1292    0.0000 C   0  0  0  0  0  0  0  0  0  0  0  0
    2.0000    0.5058    0.0000 C   0  0  0  0  0  0  0  0  0  0  0  0
    2.0000    1.5058    0.0000 C   0  0  0  0  0  0  0  0  0  0  0  0
    5.6906    0.1397    0.0000 C   0  0  0  0  0  0  0  0  0  0  0  0
    4.5205    0.4808    0.0000 H   0  0  0  0  0  0  0  0  0  0  0  0
    4.3612    2.0447    0.0000 H   0  0  0  0  0  0  0  0  0  0  0  0
    3.7568    2.5267    0.0000 H   0  0  0  0  0  0  0  0  0  0  0  0
    3.7568   -0.5152    0.0000 H   0  0  0  0  0  0  0  0  0  0  0  0
    4.3612   -0.0332    0.0000 H   0  0  0  0  0  0  0  0  0  0  0  0
    2.2971   -0.5043    0.0000 H   0  0  0  0  0  0  0  0  0  0  0  0
    3.0508   -0.6763    0.0000 H   0  0  0  0  0  0  0  0  0  0  0  0
    3.0508    2.6878    0.0000 H   0  0  0  0  0  0  0  0  0  0  0  0
    2.2971    2.5158    0.0000 H   0  0  0  0  0  0  0  0  0  0  0  0
    1.3955    0.6437    0.0000 H   0  0  0  0  0  0  0  0  0  0  0  0
    1.7310   -0.0528    0.0000 H   0  0  0  0  0  0  0  0  0  0  0  0
    1.7310    2.0644    0.0000 H   0  0  0  0  0  0  0  0  0  0  0  0
    1.3955    1.3678    0.0000 H   0  0  0  0  0  0  0  0  0  0  0  0
    5.5006    1.5427    0.0000 H   0  0  0  0  0  0  0  0  0  0  0  0
    6.0006    0.6767    0.0000 H   0  0  0  0  0  0  0  0  0  0  0  0
    6.0567   -1.8463    0.0000 H   0  0  0  0  0  0  0  0  0  0  0  0
    5.0006   -2.1292    0.0000 H   0  0  0  0  0  0  0  0  0  0  0  0
    7.2276   -1.1703    0.0000 H   0  0  0  0  0  0  0  0  0  0  0  0
    8.0006    0.6767    0.0000 H   0  0  0  0  0  0  0  0  0  0  0  0
  1  3  1  0  0  0  0
  1  4  1  0  0  0  0
  1  7  2  0  0  0  0
  1 17  1  0  0  0  0
  2  5  1  0  0  0  0
  2  6  1  0  0  0  0
  2  8  2  0  0  0  0
  2 17  1  0  0  0  0
  3 36  1  0  0  0  0
  4 35  1  0  0  0  0
  5 34  1  0  0  0  0
  6 33  1  0  0  0  0
  9 10  1  0  0  0  0
  9 17  1  0  0  0  0
  9 31  1  0  0  0  0
 10 11  1  0  0  0  0
 10 12  1  0  0  0  0
 10 18  1  0  0  0  0
 11 13  1  0  0  0  0
 11 21  1  0  0  0  0
 11 22  1  0  0  0  0
 12 14  1  0  0  0  0
 12 19  1  0  0  0  0
 12 20  1  0  0  0  0
 13 15  1  0  0  0  0
 13 23  1  0  0  0  0
 13 24  1  0  0  0  0
 14 16  1  0  0  0  0
 14 25  1  0  0  0  0
 14 26  1  0  0  0  0
 15 16  1  0  0  0  0
 15 27  1  0  0  0  0
 15 28  1  0  0  0  0
 16 29  1  0  0  0  0
 16 30  1  0  0  0  0
 17 32  1  0  0  0  0
M  END
> <PUBCHEM_COMPOUND_CID>
3699

> <PUBCHEM_COMPOUND_CANONICALIZED>
1

> <PUBCHEM_CACTVS_COMPLEXITY>
307

> <PUBCHEM_CACTVS_HBOND_ACCEPTOR>
7

> <PUBCHEM_CACTVS_HBOND_DONOR>
5

> <PUBCHEM_CACTVS_ROTATABLE_BOND>
4

> <PUBCHEM_CACTVS_SUBSKEYS>
AAADceByOAMAAAAAAAAAAAAAAAAAAAAAAAAAAAAABgAAAAAAAAAAHAgQCCAACCjBAAQAAALAABAAQAAAAIAAAAAAAAAAAIAIAAAAAAIAgAAEAAAAEAAAAAEQgAAAAAAAAAAAAAAAAAAAAAAAAAAAAAAAAA==

> <PUBCHEM_IUPAC_OPENEYE_NAME>
[(cycloheptylamino)-phosphono-methyl]phosphonic acid

> <PUBCHEM_IUPAC_CAS_NAME>
[(cycloheptylamino)-phosphonomethyl]phosphonic acid

> <PUBCHEM_IUPAC_NAME>
[(cycloheptylamino)-phosphonomethyl]phosphonic acid

> <PUBCHEM_IUPAC_SYSTEMATIC_NAME>
[(cycloheptylamino)-phosphono-methyl]phosphonic acid

> <PUBCHEM_IUPAC_TRADITIONAL_NAME>
[(cycloheptylamino)-phosphono-methyl]phosphonic acid

> <PUBCHEM_IUPAC_INCHI>
InChI=1S/C8H19NO6P2/c10-16(11,12)8(17(13,14)15)9-7-5-3-1-2-4-6-7/h7-9H,1-6H2,(H2,10,11,12)(H2,13,14,15)

> <PUBCHEM_IUPAC_INCHIKEY>
LWRDQHOZTAOILO-UHFFFAOYSA-N

> <PUBCHEM_XLOGP3_AA>
-3.5

> <PUBCHEM_EXACT_MASS>
287.068761

> <PUBCHEM_MOLECULAR_FORMULA>
C8H19NO6P2

> <PUBCHEM_MOLECULAR_WEIGHT>
287.187084

> <PUBCHEM_OPENEYE_CAN_SMILES>
C1CCCC(CC1)NC(P(=O)(O)O)P(=O)(O)O

> <PUBCHEM_OPENEYE_ISO_SMILES>
C1CCCC(CC1)NC(P(=O)(O)O)P(=O)(O)O

> <PUBCHEM_CACTVS_TPSA>
127

> <PUBCHEM_MONOISOTOPIC_WEIGHT>
287.068761

> <PUBCHEM_TOTAL_CHARGE>
0

> <PUBCHEM_HEAVY_ATOM_COUNT>
17

> <PUBCHEM_ATOM_DEF_STEREO_COUNT>
0

> <PUBCHEM_ATOM_UDEF_STEREO_COUNT>
0

> <PUBCHEM_BOND_DEF_STEREO_COUNT>
0

> <PUBCHEM_BOND_UDEF_STEREO_COUNT>
0

> <PUBCHEM_ISOTOPIC_ATOM_COUNT>
0

> <PUBCHEM_COMPONENT_COUNT>
1

> <PUBCHEM_CACTVS_TAUTO_COUNT>
1

> <PUBCHEM_COORDINATE_TYPE>
1
5
255

$$$$

