12914
  -OEChem-06261207323D

 35 36  0     0  0  0  0  0  0999 V2000
    4.8062    0.6082    0.0606 O   0  0  0  0  0  0  0  0  0  0  0  0
   -1.8291    1.7907    0.1535 O   0  0  0  0  0  0  0  0  0  0  0  0
    4.9446   -1.6788   -0.1618 O   0  0  0  0  0  0  0  0  0  0  0  0
   -1.3665   -0.4988   -0.0691 N   0  0  0  0  0  0  0  0  0  0  0  0
    0.0495   -0.5353   -0.0664 C   0  0  0  0  0  0  0  0  0  0  0  0
    2.8168   -0.6074   -0.0632 C   0  0  0  0  0  0  0  0  0  0  0  0
    0.6942   -1.7547   -0.1832 C   0  0  0  0  0  0  0  0  0  0  0  0
    0.7564    0.6491    0.0517 C   0  0  0  0  0  0  0  0  0  0  0  0
    2.0886   -1.7911   -0.1814 C   0  0  0  0  0  0  0  0  0  0  0  0
    2.1509    0.6127    0.0534 C   0  0  0  0  0  0  0  0  0  0  0  0
   -3.6377    0.3331    0.0303 C   0  0  0  0  0  0  0  0  0  0  0  0
   -2.2112    0.6151    0.0364 C   0  0  0  0  0  0  0  0  0  0  0  0
    4.2707   -0.6449   -0.0625 C   0  0  0  0  0  0  0  0  0  0  0  0
   -4.5371    1.2961   -0.4273 C   0  0  0  0  0  0  0  0  0  0  0  0
   -4.1068   -0.9007    0.4815 C   0  0  0  0  0  0  0  0  0  0  0  0
   -5.9055    1.0257   -0.4335 C   0  0  0  0  0  0  0  0  0  0  0  0
   -5.4753   -1.1712    0.4752 C   0  0  0  0  0  0  0  0  0  0  0  0
    6.2347    0.7030    0.0728 C   0  0  0  0  0  0  0  0  0  0  0  0
   -6.3745   -0.2079    0.0177 C   0  0  0  0  0  0  0  0  0  0  0  0
    6.6312    2.1570    0.2151 C   0  0  0  0  0  0  0  0  0  0  0  0
    0.1365   -2.6824   -0.2757 H   0  0  0  0  0  0  0  0  0  0  0  0
    0.3153    1.6300    0.1455 H   0  0  0  0  0  0  0  0  0  0  0  0
   -1.7920   -1.4120   -0.2028 H   0  0  0  0  0  0  0  0  0  0  0  0
    2.5878   -2.7521   -0.2735 H   0  0  0  0  0  0  0  0  0  0  0  0
    2.6775    1.5584    0.1474 H   0  0  0  0  0  0  0  0  0  0  0  0
   -4.1924    2.2618   -0.7880 H   0  0  0  0  0  0  0  0  0  0  0  0
   -3.4502   -1.6668    0.8829 H   0  0  0  0  0  0  0  0  0  0  0  0
   -6.6058    1.7752   -0.7904 H   0  0  0  0  0  0  0  0  0  0  0  0
   -5.8420   -2.1282    0.8348 H   0  0  0  0  0  0  0  0  0  0  0  0
    6.6301    0.1256    0.9156 H   0  0  0  0  0  0  0  0  0  0  0  0
    6.6337    0.2989   -0.8640 H   0  0  0  0  0  0  0  0  0  0  0  0
   -7.4401   -0.4179    0.0146 H   0  0  0  0  0  0  0  0  0  0  0  0
    7.7192    2.2663    0.2280 H   0  0  0  0  0  0  0  0  0  0  0  0
    6.2256    2.7495   -0.6116 H   0  0  0  0  0  0  0  0  0  0  0  0
    6.2222    2.5791    1.1390 H   0  0  0  0  0  0  0  0  0  0  0  0
  1 13  1  0  0  0  0
  1 18  1  0  0  0  0
  2 12  2  0  0  0  0
  3 13  2  0  0  0  0
  4  5  1  0  0  0  0
  4 12  1  0  0  0  0
  4 23  1  0  0  0  0
  5  7  2  0  0  0  0
  5  8  1  0  0  0  0
  6  9  2  0  0  0  0
  6 10  1  0  0  0  0
  6 13  1  0  0  0  0
  7  9  1  0  0  0  0
  7 21  1  0  0  0  0
  8 10  2  0  0  0  0
  8 22  1  0  0  0  0
  9 24  1  0  0  0  0
 10 25  1  0  0  0  0
 11 12  1  0  0  0  0
 11 14  2  0  0  0  0
 11 15  1  0  0  0  0
 14 16  1  0  0  0  0
 14 26  1  0  0  0  0
 15 17  2  0  0  0  0
 15 27  1  0  0  0  0
 16 19  2  0  0  0  0
 16 28  1  0  0  0  0
 17 19  1  0  0  0  0
 17 29  1  0  0  0  0
 18 20  1  0  0  0  0
 18 30  1  0  0  0  0
 18 31  1  0  0  0  0
 19 32  1  0  0  0  0
 20 33  1  0  0  0  0
 20 34  1  0  0  0  0
 20 35  1  0  0  0  0
M  END
> <PUBCHEM_COMPOUND_CID>
12914

> <PUBCHEM_CONFORMER_RMSD>
0.8

> <PUBCHEM_CONFORMER_DIVERSEORDER>
1
10
8
7
3
5
9
2
4
6

> <PUBCHEM_MMFF94_PARTIAL_CHARGES>
29
1 -0.43
10 -0.15
11 0.09
12 0.54
13 0.63
14 -0.15
15 -0.15
16 -0.15
17 -0.15
18 0.28
19 -0.15
2 -0.57
21 0.15
22 0.15
23 0.37
24 0.15
25 0.15
26 0.15
27 0.15
28 0.15
29 0.15
3 -0.57
32 0.15
4 -0.55
5 0.12
6 0.09
7 -0.15
8 -0.15
9 -0.15

> <PUBCHEM_EFFECTIVE_ROTOR_COUNT>
6

> <PUBCHEM_PHARMACOPHORE_FEATURES>
5
1 2 acceptor
1 3 acceptor
1 4 donor
6 11 14 15 16 17 19 rings
6 5 6 7 8 9 10 rings

> <PUBCHEM_HEAVY_ATOM_COUNT>
20

> <PUBCHEM_ATOM_DEF_STEREO_COUNT>
0

> <PUBCHEM_ATOM_UDEF_STEREO_COUNT>
0

> <PUBCHEM_BOND_DEF_STEREO_COUNT>
0

> <PUBCHEM_BOND_UDEF_STEREO_COUNT>
0

> <PUBCHEM_ISOTOPIC_ATOM_COUNT>
0

> <PUBCHEM_COMPONENT_COUNT>
1

> <PUBCHEM_CACTVS_TAUTO_COUNT>
3

> <PUBCHEM_CONFORMER_ID>
0000327200000001

> <PUBCHEM_MMFF94_ENERGY>
61.1628

> <PUBCHEM_FEATURE_SELFOVERLAP>
25.371

> <PUBCHEM_SHAPE_FINGERPRINT>
10 15 18272935986358826272
10638233 991 16443064963391553984
10835480 77 18341337777133246733
10968037 39 18408886235646801399
11287383 113 18413106164751651338
11315181 36 18260546715586891401
12107183 9 17477208700914127465
12236239 1 17967533501770392847
12516196 113 18407478860194003561
12596602 18 17917717898491639208
12730499 353 18186235126653789334
12916748 109 18334290981435374132
13073987 5 17846500387340542811
13533116 47 16732978773945809974
1420 363 18408599284112339943
14251718 22 18342738520296546729
14251732 16 18411699859336014850
14251764 46 16298384665357398166
14341114 176 18411695508623964071
14461889 52 18271526395245950370
14933364 13 18410291415206162276
15196674 1 18410574028101137098
18335252 98 18409162177904333754
19489759 90 17203609302860763081
200 152 18186804707972970411
21150785 3 17313107423328425509
21267235 1 18336819883479876191
21521721 280 18186517679244941226
220451 1 15719392845481208423
22224240 67 18273218568867471386
22896161 15 18410293571522467911
23081809 10 17095522937051585051
23402539 116 18131353020663927799
23559900 14 18411989031590920025
26918003 58 18413388757121472459
2916195 48 18342460322506652408
300161 21 17632301202760351483
34797466 226 17748819714078295396
350125 39 18408604751268416009
3545911 37 18408603656024829494
4073 2 18131345289343357619
4214541 1 18341049714013846125
4325135 7 18408886217691537404
4340502 62 17132119039716901514
4463277 17 18409448089624114757
474229 33 18409446985743939502
5104073 3 18270396217219092275
542803 24 14836117784605209999

> <PUBCHEM_SHAPE_MULTIPOLES>
389
17.41
1.84
0.65
3.2
0.03
0
5.15
0.49
1.45
-0.02
-0.21
0
0.81

> <PUBCHEM_SHAPE_SELFOVERLAP>
829.509

> <PUBCHEM_SHAPE_VOLUME>
215.2

> <PUBCHEM_COORDINATE_TYPE>
2
5
10

$$$$

