13037
  -OEChem-06261207413D

 19 19  0     0  0  0  0  0  0999 V2000
    1.7295   -0.3775    0.2653 O   0  0  0  0  0  0  0  0  0  0  0  0
    1.2631    1.7721   -0.4721 O   0  0  0  0  0  0  0  0  0  0  0  0
   -0.5007    0.2288   -0.0576 C   0  0  0  0  0  0  0  0  0  0  0  0
   -1.4930    1.1664    0.2284 C   0  0  0  0  0  0  0  0  0  0  0  0
   -0.8443   -1.1048   -0.2787 C   0  0  0  0  0  0  0  0  0  0  0  0
   -2.8289    0.7704    0.2935 C   0  0  0  0  0  0  0  0  0  0  0  0
   -2.1802   -1.5009   -0.2139 C   0  0  0  0  0  0  0  0  0  0  0  0
   -3.1725   -0.5632    0.0722 C   0  0  0  0  0  0  0  0  0  0  0  0
    0.8921    0.6413   -0.1250 C   0  0  0  0  0  0  0  0  0  0  0  0
    3.0781   -0.0764    0.2555 C   0  0  0  0  0  0  0  0  0  0  0  0
    4.0568   -0.9562    0.0326 C   0  0  0  0  0  0  0  0  0  0  0  0
   -1.2425    2.2090    0.4064 H   0  0  0  0  0  0  0  0  0  0  0  0
   -0.0949   -1.8553   -0.5164 H   0  0  0  0  0  0  0  0  0  0  0  0
   -3.6016    1.5002    0.5169 H   0  0  0  0  0  0  0  0  0  0  0  0
   -2.4485   -2.5387   -0.3890 H   0  0  0  0  0  0  0  0  0  0  0  0
   -4.2127   -0.8715    0.1221 H   0  0  0  0  0  0  0  0  0  0  0  0
    3.2983    0.9541    0.4996 H   0  0  0  0  0  0  0  0  0  0  0  0
    5.0954   -0.6473    0.0665 H   0  0  0  0  0  0  0  0  0  0  0  0
    3.8346   -1.9944   -0.1870 H   0  0  0  0  0  0  0  0  0  0  0  0
  1  9  1  0  0  0  0
  1 10  1  0  0  0  0
  2  9  2  0  0  0  0
  3  4  2  0  0  0  0
  3  5  1  0  0  0  0
  3  9  1  0  0  0  0
  4  6  1  0  0  0  0
  4 12  1  0  0  0  0
  5  7  2  0  0  0  0
  5 13  1  0  0  0  0
  6  8  2  0  0  0  0
  6 14  1  0  0  0  0
  7  8  1  0  0  0  0
  7 15  1  0  0  0  0
  8 16  1  0  0  0  0
 10 11  2  0  0  0  0
 10 17  1  0  0  0  0
 11 18  1  0  0  0  0
 11 19  1  0  0  0  0
M  END
> <PUBCHEM_COMPOUND_CID>
13037

> <PUBCHEM_CONFORMER_RMSD>
0.6

> <PUBCHEM_CONFORMER_DIVERSEORDER>
1
8
2
4
5
6
7
3

> <PUBCHEM_MMFF94_PARTIAL_CHARGES>
19
1 -0.23
10 -0.07
11 -0.3
12 0.15
13 0.15
14 0.15
15 0.15
16 0.15
17 0.15
18 0.15
19 0.15
2 -0.57
3 0.09
4 -0.15
5 -0.15
6 -0.15
7 -0.15
8 -0.15
9 0.63

> <PUBCHEM_EFFECTIVE_ROTOR_COUNT>
3

> <PUBCHEM_PHARMACOPHORE_FEATURES>
2
1 2 acceptor
6 3 4 5 6 7 8 rings

> <PUBCHEM_HEAVY_ATOM_COUNT>
11

> <PUBCHEM_ATOM_DEF_STEREO_COUNT>
0

> <PUBCHEM_ATOM_UDEF_STEREO_COUNT>
0

> <PUBCHEM_BOND_DEF_STEREO_COUNT>
0

> <PUBCHEM_BOND_UDEF_STEREO_COUNT>
0

> <PUBCHEM_ISOTOPIC_ATOM_COUNT>
0

> <PUBCHEM_COMPONENT_COUNT>
1

> <PUBCHEM_CACTVS_TAUTO_COUNT>
1

> <PUBCHEM_CONFORMER_ID>
000032ED00000001

> <PUBCHEM_MMFF94_ENERGY>
34.6974

> <PUBCHEM_FEATURE_SELFOVERLAP>
10.148

> <PUBCHEM_SHAPE_FINGERPRINT>
10465860 71 18266436816039649476
11769659 78 18337678520340616110
12032990 46 18410851083862682650
12932764 1 17346330288163868088
13024252 1 15554446318996051361
13690532 89 18411141342073841967
14128692 85 18412262796562867676
14144814 61 18411419518367865890
14325111 11 18408886230602929688
14577589 140 18411981390326719807
14993402 34 18342179993943162559
16945 1 18336817667508535253
17804303 29 18260544545826443018
18511873 20 18410854377954710873
19422 9 18343858918482275342
20645464 45 17385438834558721935
207724 885 18343581854078216616
20871998 184 18040715814504595143
22485316 2 18342181098324867986
23402539 116 17895203225012953173
23463225 33 18340206396742353238
23552423 10 18199469857315964573
369184 2 16226049985409056283
5084963 1 18410013217368613377
7364860 26 18191304879953253176
75552 356 18334858333134194466

> <PUBCHEM_SHAPE_MULTIPOLES>
214.64
5.96
1.51
0.65
4.43
0.09
0
-1.62
0.53
-0.35
-0.14
-0.01
0.02
-0.27

> <PUBCHEM_SHAPE_SELFOVERLAP>
443.942

> <PUBCHEM_SHAPE_VOLUME>
122.8

> <PUBCHEM_COORDINATE_TYPE>
2
5
10

$$$$

