3705
  -OEChem-06251223363D

 38 41  0     0  0  0  0  0  0999 V2000
   -6.9980   -0.2893    0.0634 S   0  0  0  0  0  0  0  0  0  0  0  0
    6.9838    0.3950   -0.0926 S   0  0  0  0  0  0  0  0  0  0  0  0
   -1.4971   -2.3025    0.0423 O   0  0  0  0  0  0  0  0  0  0  0  0
    1.4865    2.1206    0.0140 O   0  0  0  0  0  0  0  0  0  0  0  0
   -7.4182   -0.4339   -1.5095 O   0  0  0  0  0  0  0  0  0  0  0  0
    7.4117    0.5637    1.4760 O   0  0  0  0  0  0  0  0  0  0  0  0
   -7.0460   -1.6240    0.6411 O   0  0  0  0  0  0  0  0  0  0  0  0
   -7.7716    0.7983    0.6404 O   0  0  0  0  0  0  0  0  0  0  0  0
    7.8004   -0.6764   -0.6432 O   0  0  0  0  0  0  0  0  0  0  0  0
    6.9789    1.7143   -0.7044 O   0  0  0  0  0  0  0  0  0  0  0  0
   -1.3255    1.2077    0.0026 N   0  0  0  0  0  0  0  0  0  0  0  0
    1.3228   -1.3572    0.0304 N   0  0  0  0  0  0  0  0  0  0  0  0
   -0.7232   -0.0218    0.0115 C   0  0  0  0  0  0  0  0  0  0  0  0
   -2.9658   -0.3040    0.0325 C   0  0  0  0  0  0  0  0  0  0  0  0
   -2.6947    1.0658    0.0150 C   0  0  0  0  0  0  0  0  0  0  0  0
    0.7101   -0.2045    0.0037 C   0  0  0  0  0  0  0  0  0  0  0  0
   -1.7125   -0.9778    0.0304 C   0  0  0  0  0  0  0  0  0  0  0  0
    3.0058    0.2730   -0.0326 C   0  0  0  0  0  0  0  0  0  0  0  0
    2.7058   -1.0857    0.0030 C   0  0  0  0  0  0  0  0  0  0  0  0
    1.7149    0.9385   -0.0178 C   0  0  0  0  0  0  0  0  0  0  0  0
   -4.3090   -0.7294    0.0476 C   0  0  0  0  0  0  0  0  0  0  0  0
   -3.7038    2.0354    0.0119 C   0  0  0  0  0  0  0  0  0  0  0  0
   -5.3288    0.2291    0.0449 C   0  0  0  0  0  0  0  0  0  0  0  0
    4.2881    0.7769   -0.0614 C   0  0  0  0  0  0  0  0  0  0  0  0
   -5.0287    1.5898    0.0272 C   0  0  0  0  0  0  0  0  0  0  0  0
    5.3258   -0.1551   -0.0582 C   0  0  0  0  0  0  0  0  0  0  0  0
    3.7353   -2.0103    0.0064 C   0  0  0  0  0  0  0  0  0  0  0  0
    5.0527   -1.5362   -0.0248 C   0  0  0  0  0  0  0  0  0  0  0  0
   -0.8414    2.0950   -0.0111 H   0  0  0  0  0  0  0  0  0  0  0  0
   -4.5350   -1.7915    0.0538 H   0  0  0  0  0  0  0  0  0  0  0  0
   -3.4708    3.0948   -0.0039 H   0  0  0  0  0  0  0  0  0  0  0  0
    4.4646    1.8457   -0.0775 H   0  0  0  0  0  0  0  0  0  0  0  0
   -5.8184    2.3369    0.0163 H   0  0  0  0  0  0  0  0  0  0  0  0
    3.5346   -3.0761    0.0344 H   0  0  0  0  0  0  0  0  0  0  0  0
    5.8615   -2.2627   -0.0140 H   0  0  0  0  0  0  0  0  0  0  0  0
   -2.3430   -2.7830    0.0543 H   0  0  0  0  0  0  0  0  0  0  0  0
   -6.9077   -1.1027   -2.0239 H   0  0  0  0  0  0  0  0  0  0  0  0
    7.3868   -0.2636    2.0123 H   0  0  0  0  0  0  0  0  0  0  0  0
  1  5  1  0  0  0  0
  1  7  2  0  0  0  0
  1  8  2  0  0  0  0
  1 23  1  0  0  0  0
  2  6  1  0  0  0  0
  2  9  2  0  0  0  0
  2 10  2  0  0  0  0
  2 26  1  0  0  0  0
  3 17  1  0  0  0  0
  3 36  1  0  0  0  0
  4 20  2  0  0  0  0
  5 37  1  0  0  0  0
  6 38  1  0  0  0  0
 11 13  1  0  0  0  0
 11 15  1  0  0  0  0
 11 29  1  0  0  0  0
 12 16  2  0  0  0  0
 12 19  1  0  0  0  0
 13 16  1  0  0  0  0
 13 17  2  0  0  0  0
 14 15  2  0  0  0  0
 14 17  1  0  0  0  0
 14 21  1  0  0  0  0
 15 22  1  0  0  0  0
 16 20  1  0  0  0  0
 18 19  2  0  0  0  0
 18 20  1  0  0  0  0
 18 24  1  0  0  0  0
 19 27  1  0  0  0  0
 21 23  2  0  0  0  0
 21 30  1  0  0  0  0
 22 25  2  0  0  0  0
 22 31  1  0  0  0  0
 23 25  1  0  0  0  0
 24 26  2  0  0  0  0
 24 32  1  0  0  0  0
 25 33  1  0  0  0  0
 26 28  1  0  0  0  0
 27 28  2  0  0  0  0
 27 34  1  0  0  0  0
 28 35  1  0  0  0  0
M  END
> <PUBCHEM_COMPOUND_CID>
3705

> <PUBCHEM_CONFORMER_RMSD>
0.8

> <PUBCHEM_CONFORMER_DIVERSEORDER>
1
3
2

> <PUBCHEM_MMFF94_PARTIAL_CHARGES>
37
1 1.49
10 -0.65
11 0.03
12 -0.63
13 -0.24
15 -0.15
16 0.53
17 0.06
18 0.09
19 0.18
2 1.49
20 0.48
21 -0.15
22 -0.15
23 -0.01
24 -0.15
25 -0.15
26 -0.01
27 -0.15
28 -0.15
29 0.27
3 -0.51
30 0.15
31 0.15
32 0.15
33 0.15
34 0.15
35 0.15
36 0.45
37 0.5
38 0.5
4 -0.57
5 -0.68
6 -0.68
7 -0.65
8 -0.65
9 -0.65

> <PUBCHEM_EFFECTIVE_ROTOR_COUNT>
3

> <PUBCHEM_PHARMACOPHORE_FEATURES>
17
1 10 acceptor
1 11 cation
1 11 donor
1 12 acceptor
1 3 donor
1 4 acceptor
1 5 acceptor
1 6 acceptor
1 7 acceptor
1 8 acceptor
1 9 acceptor
4 1 5 7 8 anion
4 2 6 9 10 anion
5 11 13 14 15 17 rings
5 12 16 18 19 20 rings
6 14 15 21 22 23 25 rings
6 18 19 24 26 27 28 rings

> <PUBCHEM_HEAVY_ATOM_COUNT>
28

> <PUBCHEM_ATOM_DEF_STEREO_COUNT>
0

> <PUBCHEM_ATOM_UDEF_STEREO_COUNT>
0

> <PUBCHEM_BOND_DEF_STEREO_COUNT>
0

> <PUBCHEM_BOND_UDEF_STEREO_COUNT>
0

> <PUBCHEM_ISOTOPIC_ATOM_COUNT>
0

> <PUBCHEM_COMPONENT_COUNT>
1

> <PUBCHEM_CACTVS_TAUTO_COUNT>
11

> <PUBCHEM_CONFORMER_ID>
00000E7900000001

> <PUBCHEM_MMFF94_ENERGY>
53.379

> <PUBCHEM_FEATURE_SELFOVERLAP>
86.569

> <PUBCHEM_SHAPE_FINGERPRINT>
10 15 18273496750279453920
10050765 1 18123188179990459908
10299344 5 18259702315529699255
10595046 47 18338234967697558233
11007060 377 18341886411807072937
11315181 36 18273210894620697929
11524674 6 16008751295289282215
11578080 2 16952271819149759170
11719270 70 18409451406151711818
12166972 35 18186239524257423193
12236239 1 18260547865524926545
12516196 113 18187085066105606168
12838862 33 18339096928963296384
13073987 5 18337953505605749512
13533116 47 17895475929181492770
13685833 64 18411417327818422392
14170010 4 18409450272011047544
14251764 18 18410575093253013505
14251764 46 18411982459546638690
14461889 52 18341894078434998794
14849402 71 18335135354225480264
14933364 13 18408601478502849160
15131766 46 16126665009774826734
15183329 4 18410856572524691489
15196674 1 18339079392611833320
1577012 14 18337673126278423913
15840311 113 18271802398777301684
15849732 13 18410292510243319396
16120349 18 18341052930322281108
18335252 98 18412538804494954443
18608769 82 18411980222291080171
18681886 176 18409174290218212065
19611394 137 17986939774763646747
21130935 74 18335419131330781874
21150785 3 18040435490309672006
21236236 1 18336827593837670577
21267235 1 18409442591986718189
21315763 28 18412544340765366300
220451 1 15574720222026389551
22224240 67 17676491635721482326
23522609 53 18118654743954246097
23559900 14 18336551508121815553
3004659 81 18272369780614530944
335352 9 18410855438679712486
34797466 226 16877940525950882400
350125 39 18410011040020732209
3545911 37 18408886239393174920
4073 2 18059286578814457738
4325135 7 18410573989488616789
4340502 62 16702303460535260642
5104073 3 18338797926235601144
54039377 194 18042696014748367631

> <PUBCHEM_SHAPE_MULTIPOLES>
527.01
22.81
1.9
0.76
0.2
0.04
-0.01
-0.8
-0.2
-0.03
0.01
0
-0.01
-0.02

> <PUBCHEM_SHAPE_SELFOVERLAP>
1162.495

> <PUBCHEM_SHAPE_VOLUME>
286.5

> <PUBCHEM_COORDINATE_TYPE>
2
5
10

$$$$

