12216
  -OEChem-06261206403D

 30 29  0     1  0  0  0  0  0999 V2000
    2.3822    1.3468   -0.4157 O   0  0  0  0  0  0  0  0  0  0  0  0
   -0.2546    0.2029    0.1804 C   0  0  0  0  0  0  0  0  0  0  0  0
    0.9938   -0.6049   -0.1986 C   0  0  0  0  0  0  0  0  0  0  0  0
   -1.5663   -0.4813   -0.2183 C   0  0  0  0  0  0  0  0  0  0  0  0
    2.2890    0.0862    0.2499 C   0  0  1  0  0  0  0  0  0  0  0  0
   -2.8143    0.2881    0.2206 C   0  0  0  0  0  0  0  0  0  0  0  0
    3.5492   -0.7211   -0.0851 C   0  0  0  0  0  0  0  0  0  0  0  0
   -4.0905   -0.4349   -0.2130 C   0  0  0  0  0  0  0  0  0  0  0  0
    4.8461   -0.0214    0.2878 C   0  0  0  0  0  0  0  0  0  0  0  0
   -5.3346    0.3396    0.1919 C   0  0  0  0  0  0  0  0  0  0  0  0
   -0.2151    1.1913   -0.2929 H   0  0  0  0  0  0  0  0  0  0  0  0
   -0.2556    0.3705    1.2647 H   0  0  0  0  0  0  0  0  0  0  0  0
    1.0033   -0.7406   -1.2873 H   0  0  0  0  0  0  0  0  0  0  0  0
    0.9357   -1.6007    0.2567 H   0  0  0  0  0  0  0  0  0  0  0  0
   -1.5924   -1.4866    0.2206 H   0  0  0  0  0  0  0  0  0  0  0  0
   -1.5829   -0.6115   -1.3075 H   0  0  0  0  0  0  0  0  0  0  0  0
    2.2543    0.2835    1.3271 H   0  0  0  0  0  0  0  0  0  0  0  0
   -2.8086    0.4065    1.3108 H   0  0  0  0  0  0  0  0  0  0  0  0
   -2.7938    1.2945   -0.2145 H   0  0  0  0  0  0  0  0  0  0  0  0
    3.5768   -0.9262   -1.1626 H   0  0  0  0  0  0  0  0  0  0  0  0
    3.5047   -1.6900    0.4260 H   0  0  0  0  0  0  0  0  0  0  0  0
   -4.1244   -1.4333    0.2382 H   0  0  0  0  0  0  0  0  0  0  0  0
   -4.0910   -0.5700   -1.3009 H   0  0  0  0  0  0  0  0  0  0  0  0
    5.7016   -0.6660    0.0624 H   0  0  0  0  0  0  0  0  0  0  0  0
    4.8695    0.2124    1.3569 H   0  0  0  0  0  0  0  0  0  0  0  0
    4.9729    0.9108   -0.2712 H   0  0  0  0  0  0  0  0  0  0  0  0
   -6.2347   -0.1955   -0.1268 H   0  0  0  0  0  0  0  0  0  0  0  0
   -5.3813    0.4664    1.2782 H   0  0  0  0  0  0  0  0  0  0  0  0
   -5.3473    1.3315   -0.2710 H   0  0  0  0  0  0  0  0  0  0  0  0
    2.4133    1.1782   -1.3730 H   0  0  0  0  0  0  0  0  0  0  0  0
  1  5  1  0  0  0  0
  1 30  1  0  0  0  0
  2  3  1  0  0  0  0
  2  4  1  0  0  0  0
  2 11  1  0  0  0  0
  2 12  1  0  0  0  0
  3  5  1  0  0  0  0
  3 13  1  0  0  0  0
  3 14  1  0  0  0  0
  4  6  1  0  0  0  0
  4 15  1  0  0  0  0
  4 16  1  0  0  0  0
  5  7  1  0  0  0  0
  5 17  1  0  0  0  0
  6  8  1  0  0  0  0
  6 18  1  0  0  0  0
  6 19  1  0  0  0  0
  7  9  1  0  0  0  0
  7 20  1  0  0  0  0
  7 21  1  0  0  0  0
  8 10  1  0  0  0  0
  8 22  1  0  0  0  0
  8 23  1  0  0  0  0
  9 24  1  0  0  0  0
  9 25  1  0  0  0  0
  9 26  1  0  0  0  0
 10 27  1  0  0  0  0
 10 28  1  0  0  0  0
 10 29  1  0  0  0  0
M  END
> <PUBCHEM_COMPOUND_CID>
12216

> <PUBCHEM_CONFORMER_RMSD>
0.6

> <PUBCHEM_CONFORMER_DIVERSEORDER>
1
221
184
193
161
208
16
103
73
199
188
14
71
218
100
4
165
153
81
44
232
172
236
135
50
64
166
7
195
217
111
3
231
67
223
9
85
144
211
132
12
222
200
53
30
216
27
34
159
104
230
15
49
227
138
39
90
108
80
148
219
8
109
75
163
86
137
206
158
215
43
155
23
225
241
22
169
24
229
33
101
212
140
37
127
72
57
204
209
176
202
213
235
113
152
59
143
56
186
79
180
83
77
238
63
11
121
239
190
70
214
196
207
88
38
142
48
136
151
2
82
234
167
55
98
179
203
95
107
58
10
201
170
20
93
84
191
154
45
32
198
182
112
124
228
130
114
160
226
125
76
21
41
224
240
68
40
183
168
237
54
42
99
175
197
106
91
147
110
74
164
178
118
52
5
115
220
133
47
116
150
145
62
194
192
117
210
177
6
185
25
149
66
26
173
89
97
35
105
139
28
17
92
94
87
141
36
102
131
189
13
78
126
162
174
119
46
181
128
233
51
171
18
205
134
96
122
65
31
129
146
60
61
123
156
69
19
29
120
157
187

> <PUBCHEM_MMFF94_PARTIAL_CHARGES>
3
1 -0.68
30 0.4
5 0.28

> <PUBCHEM_EFFECTIVE_ROTOR_COUNT>
6

> <PUBCHEM_PHARMACOPHORE_FEATURES>
5
1 1 acceptor
1 1 donor
1 10 hydrophobe
1 9 hydrophobe
5 2 3 4 6 8 hydrophobe

> <PUBCHEM_HEAVY_ATOM_COUNT>
10

> <PUBCHEM_ATOM_DEF_STEREO_COUNT>
0

> <PUBCHEM_ATOM_UDEF_STEREO_COUNT>
1

> <PUBCHEM_BOND_DEF_STEREO_COUNT>
0

> <PUBCHEM_BOND_UDEF_STEREO_COUNT>
0

> <PUBCHEM_ISOTOPIC_ATOM_COUNT>
0

> <PUBCHEM_COMPONENT_COUNT>
1

> <PUBCHEM_CACTVS_TAUTO_COUNT>
1

> <PUBCHEM_CONFORMER_ID>
00002FB800000001

> <PUBCHEM_MMFF94_ENERGY>
0.886

> <PUBCHEM_FEATURE_SELFOVERLAP>
25.371

> <PUBCHEM_SHAPE_FINGERPRINT>
11062470 55 18409167714095721891
114248 4 7997966873518005543
12932764 1 16773250503977342138
14123238 8 16950565480045131832
17834072 33 18338516339610858638
17834076 25 7132714998301071330
18342897 14 17967253095982089248
18522853 276 18259704510057800521
190213 19 17967248698125494967
20645477 70 18261954171547815934
20719005 15 18409730660070628539
21119208 17 18334294270852919119
22485316 2 8214145144716155117
23402539 116 17967258602483603621
366044 4 18335422370136867423
42788 4 18259704505952412267

> <PUBCHEM_SHAPE_MULTIPOLES>
199.93
11.1
0.9
0.66
4.58
0.1
-0.01
0.31
-0.72
-0.31
0.08
-0.03
0.02
-0.18

> <PUBCHEM_SHAPE_SELFOVERLAP>
352.185

> <PUBCHEM_SHAPE_VOLUME>
131.7

> <PUBCHEM_COORDINATE_TYPE>
2
5
10

$$$$

