5333
  -OEChem-06261200383D

 19 19  0     0  0  0  0  0  0999 V2000
    2.1384    0.0001    0.1038 S   0  0  0  0  0  0  0  0  0  0  0  0
    2.5829    1.2598    0.6834 O   0  0  0  0  0  0  0  0  0  0  0  0
    2.5860   -1.2596    0.6813 O   0  0  0  0  0  0  0  0  0  0  0  0
    2.5075    0.0003   -1.5645 N   0  0  0  0  0  0  0  0  0  0  0  0
   -3.8060   -0.0006   -0.0440 N   0  0  0  0  0  0  0  0  0  0  0  0
    0.3930    0.0001    0.0584 C   0  0  0  0  0  0  0  0  0  0  0  0
   -0.3043    1.2080    0.0404 C   0  0  0  0  0  0  0  0  0  0  0  0
   -0.3041   -1.2079    0.0414 C   0  0  0  0  0  0  0  0  0  0  0  0
   -2.3959   -0.0001   -0.0118 C   0  0  0  0  0  0  0  0  0  0  0  0
   -1.6987    1.2079    0.0053 C   0  0  0  0  0  0  0  0  0  0  0  0
   -1.6986   -1.2080    0.0063 C   0  0  0  0  0  0  0  0  0  0  0  0
    0.2182    2.1605    0.0468 H   0  0  0  0  0  0  0  0  0  0  0  0
    0.2185   -2.1603    0.0487 H   0  0  0  0  0  0  0  0  0  0  0  0
   -2.2308    2.1557   -0.0095 H   0  0  0  0  0  0  0  0  0  0  0  0
   -2.2305   -2.1560   -0.0076 H   0  0  0  0  0  0  0  0  0  0  0  0
    2.8982    0.8613   -1.9662 H   0  0  0  0  0  0  0  0  0  0  0  0
    2.8983   -0.8606   -1.9664 H   0  0  0  0  0  0  0  0  0  0  0  0
   -4.3121    0.8748   -0.0620 H   0  0  0  0  0  0  0  0  0  0  0  0
   -4.3117   -0.8762   -0.0613 H   0  0  0  0  0  0  0  0  0  0  0  0
  1  2  2  0  0  0  0
  1  3  2  0  0  0  0
  1  4  1  0  0  0  0
  1  6  1  0  0  0  0
  4 16  1  0  0  0  0
  4 17  1  0  0  0  0
  5  9  1  0  0  0  0
  5 18  1  0  0  0  0
  5 19  1  0  0  0  0
  6  7  2  0  0  0  0
  6  8  1  0  0  0  0
  7 10  1  0  0  0  0
  7 12  1  0  0  0  0
  8 11  2  0  0  0  0
  8 13  1  0  0  0  0
  9 10  2  0  0  0  0
  9 11  1  0  0  0  0
 10 14  1  0  0  0  0
 11 15  1  0  0  0  0
M  END
> <PUBCHEM_COMPOUND_CID>
5333

> <PUBCHEM_CONFORMER_RMSD>
0.4

> <PUBCHEM_CONFORMER_DIVERSEORDER>
1

> <PUBCHEM_MMFF94_PARTIAL_CHARGES>
19
1 1.45
10 -0.15
11 -0.15
12 0.15
13 0.15
14 0.15
15 0.15
16 0.42
17 0.42
18 0.4
19 0.4
2 -0.65
3 -0.65
4 -0.98
5 -0.9
6 -0.01
7 -0.15
8 -0.15
9 0.1

> <PUBCHEM_EFFECTIVE_ROTOR_COUNT>
1

> <PUBCHEM_PHARMACOPHORE_FEATURES>
6
1 2 acceptor
1 3 acceptor
1 4 donor
1 5 cation
1 5 donor
6 6 7 8 9 10 11 rings

> <PUBCHEM_HEAVY_ATOM_COUNT>
11

> <PUBCHEM_ATOM_DEF_STEREO_COUNT>
0

> <PUBCHEM_ATOM_UDEF_STEREO_COUNT>
0

> <PUBCHEM_BOND_DEF_STEREO_COUNT>
0

> <PUBCHEM_BOND_UDEF_STEREO_COUNT>
0

> <PUBCHEM_ISOTOPIC_ATOM_COUNT>
0

> <PUBCHEM_COMPONENT_COUNT>
1

> <PUBCHEM_CACTVS_TAUTO_COUNT>
1

> <PUBCHEM_CONFORMER_ID>
000014D500000001

> <PUBCHEM_MMFF94_ENERGY>
18.4666

> <PUBCHEM_FEATURE_SELFOVERLAP>
30.463

> <PUBCHEM_SHAPE_FINGERPRINT>
10857977 72 18339086986330349225
12032990 46 18410568470957060899
12524768 44 18187642470765339028
12897270 3 18408881836766859998
12932764 1 18410853265447346327
14325111 11 18410578400678667785
15310529 11 16773796987247547405
15775835 57 18413387639928763640
16945 1 18410571790718549019
18186145 218 18260827128957762369
20201158 50 17967810561415312790
20645464 45 18113905935472698128
20645476 183 17917416588939529111
21028194 46 18342741865996981463
21040471 1 18339921631403650613
23402655 69 18121802749308652285
23552423 10 18199466558617622445
2748010 2 18121783824869764421
369184 2 18409737256924033019
5084963 1 17845936350211775496
7364860 26 18335140912603445306
8030462 33 18272082812110709742

> <PUBCHEM_SHAPE_MULTIPOLES>
208.52
4.79
1.39
0.84
0.8
0
-0.24
0
-0.1
-0.04
0.17
-0.63
0
0

> <PUBCHEM_SHAPE_SELFOVERLAP>
420.174

> <PUBCHEM_SHAPE_VOLUME>
123

> <PUBCHEM_COORDINATE_TYPE>
2
5
10

$$$$

