17395633
  -OEChem-06241222512D

 51 53  0     1  0  0  0  0  0999 V2000
    5.0062    6.3614    0.0000 F   0  0  0  0  0  0  0  0  0  0  0  0
    3.6166    6.0985    0.0000 F   0  0  0  0  0  0  0  0  0  0  0  0
    5.2691    4.9718    0.0000 F   0  0  0  0  0  0  0  0  0  0  0  0
    5.7216   -6.3614    0.0000 F   0  0  0  0  0  0  0  0  0  0  0  0
    2.2575   -2.3614    0.0000 O   0  0  0  0  0  0  0  0  0  0  0  0
    2.6235    1.3292    0.0000 N   0  0  3  0  0  0  0  0  0  0  0  0
    3.1235   -0.8614    0.0000 N   0  0  0  0  0  0  0  0  0  0  0  0
    3.6235    1.3292    0.0000 C   0  0  0  0  0  0  0  0  0  0  0  0
    2.0000    0.5474    0.0000 C   0  0  0  0  0  0  0  0  0  0  0  0
    4.2470    0.5474    0.0000 C   0  0  0  0  0  0  0  0  0  0  0  0
    2.2225   -0.4275    0.0000 C   0  0  0  0  0  0  0  0  0  0  0  0
    4.0245   -0.4275    0.0000 C   0  0  0  0  0  0  0  0  0  0  0  0
    2.1896    2.2302    0.0000 C   0  0  0  0  0  0  0  0  0  0  0  0
    2.7529    3.0564    0.0000 C   0  0  0  0  0  0  0  0  0  0  0  0
    3.1235   -1.8614    0.0000 C   0  0  0  0  0  0  0  0  0  0  0  0
    3.7501    2.9817    0.0000 C   0  0  0  0  0  0  0  0  0  0  0  0
    2.3190    3.9574    0.0000 C   0  0  0  0  0  0  0  0  0  0  0  0
    3.9895   -2.3614    0.0000 C   0  0  0  0  0  0  0  0  0  0  0  0
    4.3134    3.8080    0.0000 C   0  0  0  0  0  0  0  0  0  0  0  0
    2.8824    4.7837    0.0000 C   0  0  0  0  0  0  0  0  0  0  0  0
    3.8796    4.7089    0.0000 C   0  0  0  0  0  0  0  0  0  0  0  0
    3.9895   -3.3614    0.0000 C   0  0  0  0  0  0  0  0  0  0  0  0
    4.4429    5.5352    0.0000 C   0  0  0  0  0  0  0  0  0  0  0  0
    4.8555   -3.8614    0.0000 C   0  0  0  0  0  0  0  0  0  0  0  0
    4.8555   -4.8614    0.0000 C   0  0  0  0  0  0  0  0  0  0  0  0
    5.7216   -3.3614    0.0000 C   0  0  0  0  0  0  0  0  0  0  0  0
    5.7216   -5.3614    0.0000 C   0  0  0  0  0  0  0  0  0  0  0  0
    6.5876   -3.8614    0.0000 C   0  0  0  0  0  0  0  0  0  0  0  0
    6.5876   -4.8614    0.0000 C   0  0  0  0  0  0  0  0  0  0  0  0
    4.1821    1.5982    0.0000 H   0  0  0  0  0  0  0  0  0  0  0  0
    3.4855    1.9337    0.0000 H   0  0  0  0  0  0  0  0  0  0  0  0
    1.6134    1.0321    0.0000 H   0  0  0  0  0  0  0  0  0  0  0  0
    1.4414    0.2784    0.0000 H   0  0  0  0  0  0  0  0  0  0  0  0
    4.8056    0.2784    0.0000 H   0  0  0  0  0  0  0  0  0  0  0  0
    4.6335    1.0321    0.0000 H   0  0  0  0  0  0  0  0  0  0  0  0
    1.6025   -0.4275    0.0000 H   0  0  0  0  0  0  0  0  0  0  0  0
    2.0846   -1.0320    0.0000 H   0  0  0  0  0  0  0  0  0  0  0  0
    4.1624   -1.0320    0.0000 H   0  0  0  0  0  0  0  0  0  0  0  0
    4.6445   -0.4275    0.0000 H   0  0  0  0  0  0  0  0  0  0  0  0
    1.7458    2.6631    0.0000 H   0  0  0  0  0  0  0  0  0  0  0  0
    1.6862    1.8683    0.0000 H   0  0  0  0  0  0  0  0  0  0  0  0
    4.0191    2.4231    0.0000 H   0  0  0  0  0  0  0  0  0  0  0  0
    1.7008    4.0038    0.0000 H   0  0  0  0  0  0  0  0  0  0  0  0
    4.5264   -2.0514    0.0000 H   0  0  0  0  0  0  0  0  0  0  0  0
    4.9317    3.7616    0.0000 H   0  0  0  0  0  0  0  0  0  0  0  0
    2.6134    5.3423    0.0000 H   0  0  0  0  0  0  0  0  0  0  0  0
    3.4526   -3.6714    0.0000 H   0  0  0  0  0  0  0  0  0  0  0  0
    4.3186   -5.1714    0.0000 H   0  0  0  0  0  0  0  0  0  0  0  0
    5.7216   -2.7414    0.0000 H   0  0  0  0  0  0  0  0  0  0  0  0
    7.1245   -3.5514    0.0000 H   0  0  0  0  0  0  0  0  0  0  0  0
    7.1245   -5.1714    0.0000 H   0  0  0  0  0  0  0  0  0  0  0  0
  1 23  1  0  0  0  0
  2 23  1  0  0  0  0
  3 23  1  0  0  0  0
  4 27  1  0  0  0  0
  5 15  2  0  0  0  0
  6  8  1  0  0  0  0
  6  9  1  0  0  0  0
  6 13  1  0  0  0  0
  7 11  1  0  0  0  0
  7 12  1  0  0  0  0
  7 15  1  0  0  0  0
  8 10  1  0  0  0  0
  8 30  1  0  0  0  0
  8 31  1  0  0  0  0
  9 11  1  0  0  0  0
  9 32  1  0  0  0  0
  9 33  1  0  0  0  0
 10 12  1  0  0  0  0
 10 34  1  0  0  0  0
 10 35  1  0  0  0  0
 11 36  1  0  0  0  0
 11 37  1  0  0  0  0
 12 38  1  0  0  0  0
 12 39  1  0  0  0  0
 13 14  1  0  0  0  0
 13 40  1  0  0  0  0
 13 41  1  0  0  0  0
 14 16  2  0  0  0  0
 14 17  1  0  0  0  0
 15 18  1  0  0  0  0
 16 19  1  0  0  0  0
 16 42  1  0  0  0  0
 17 20  2  0  0  0  0
 17 43  1  0  0  0  0
 18 22  2  0  0  0  0
 18 44  1  0  0  0  0
 19 21  2  0  0  0  0
 19 45  1  0  0  0  0
 20 21  1  0  0  0  0
 20 46  1  0  0  0  0
 21 23  1  0  0  0  0
 22 24  1  0  0  0  0
 22 47  1  0  0  0  0
 24 25  2  0  0  0  0
 24 26  1  0  0  0  0
 25 27  1  0  0  0  0
 25 48  1  0  0  0  0
 26 28  2  0  0  0  0
 26 49  1  0  0  0  0
 27 29  2  0  0  0  0
 28 29  1  0  0  0  0
 28 50  1  0  0  0  0
 29 51  1  0  0  0  0
M  END
> <PUBCHEM_COMPOUND_CID>
17395633

> <PUBCHEM_COMPOUND_CANONICALIZED>
1

> <PUBCHEM_CACTVS_COMPLEXITY>
558

> <PUBCHEM_CACTVS_HBOND_ACCEPTOR>
6

> <PUBCHEM_CACTVS_HBOND_DONOR>
0

> <PUBCHEM_CACTVS_ROTATABLE_BOND>
4

> <PUBCHEM_CACTVS_SUBSKEYS>
AAADceB7IcAAAAAAAAAAAAAAAAAAAAAAAAAwYAAABYAAAAABQAAAHwAAAAAADADBmBwwAIMAAACIAiFSEACCAAAgAAAIiAAIBMgIYCKA0RGUIAhghgCIiYcQgAAOQAAAAAAAAACAAAAAAAAAAAAAAAAAAA==

> <PUBCHEM_IUPAC_OPENEYE_NAME>
(E)-3-(3-fluorophenyl)-1-[4-[[4-(trifluoromethyl)phenyl]methyl]-1,4-diazepan-1-yl]prop-2-en-1-one

> <PUBCHEM_IUPAC_CAS_NAME>
(E)-3-(3-fluorophenyl)-1-[4-[[4-(trifluoromethyl)phenyl]methyl]-1,4-diazepan-1-yl]-2-propen-1-one

> <PUBCHEM_IUPAC_NAME>
(E)-3-(3-fluorophenyl)-1-[4-[[4-(trifluoromethyl)phenyl]methyl]-1,4-diazepan-1-yl]prop-2-en-1-one

> <PUBCHEM_IUPAC_SYSTEMATIC_NAME>
(E)-3-(3-fluorophenyl)-1-[4-[[4-(trifluoromethyl)phenyl]methyl]-1,4-diazepan-1-yl]prop-2-en-1-one

> <PUBCHEM_IUPAC_TRADITIONAL_NAME>
(E)-3-(3-fluorophenyl)-1-[4-[4-(trifluoromethyl)benzyl]-1,4-diazepan-1-yl]prop-2-en-1-one

> <PUBCHEM_IUPAC_INCHI>
InChI=1S/C22H22F4N2O/c23-20-4-1-3-17(15-20)7-10-21(29)28-12-2-11-27(13-14-28)16-18-5-8-19(9-6-18)22(24,25)26/h1,3-10,15H,2,11-14,16H2/b10-7+

> <PUBCHEM_IUPAC_INCHIKEY>
WUCDJICMWSMGRS-JXMROGBWSA-N

> <PUBCHEM_XLOGP3_AA>
4.5

> <PUBCHEM_EXACT_MASS>
406.166826

> <PUBCHEM_MOLECULAR_FORMULA>
C22H22F4N2O

> <PUBCHEM_MOLECULAR_WEIGHT>
406.416493

> <PUBCHEM_OPENEYE_CAN_SMILES>
C1CN(CCN(C1)C(=O)C=CC2=CC(=CC=C2)F)CC3=CC=C(C=C3)C(F)(F)F

> <PUBCHEM_OPENEYE_ISO_SMILES>
C1CN(CCN(C1)C(=O)/C=C/C2=CC(=CC=C2)F)CC3=CC=C(C=C3)C(F)(F)F

> <PUBCHEM_CACTVS_TPSA>
23.6

> <PUBCHEM_MONOISOTOPIC_WEIGHT>
406.166826

> <PUBCHEM_TOTAL_CHARGE>
0

> <PUBCHEM_HEAVY_ATOM_COUNT>
29

> <PUBCHEM_ATOM_DEF_STEREO_COUNT>
0

> <PUBCHEM_ATOM_UDEF_STEREO_COUNT>
0

> <PUBCHEM_BOND_DEF_STEREO_COUNT>
1

> <PUBCHEM_BOND_UDEF_STEREO_COUNT>
0

> <PUBCHEM_ISOTOPIC_ATOM_COUNT>
0

> <PUBCHEM_COMPONENT_COUNT>
1

> <PUBCHEM_CACTVS_TAUTO_COUNT>
1

> <PUBCHEM_COORDINATE_TYPE>
1
5
255

> <PUBCHEM_BONDANNOTATIONS>
14  16  8
14  17  8
16  19  8
17  20  8
19  21  8
20  21  8
24  25  8
24  26  8
25  27  8
26  28  8
27  29  8
28  29  8

$$$$

