10130
  -OEChem-06261204203D

 29 29  0     1  0  0  0  0  0999 V2000
    2.5205   -1.9088   -0.6285 O   0  0  0  0  0  0  0  0  0  0  0  0
   -4.0687   -0.0885   -0.9167 O   0  0  0  0  0  0  0  0  0  0  0  0
   -3.1222   -1.0617    0.9109 O   0  0  0  0  0  0  0  0  0  0  0  0
    0.6647    1.0011    0.0897 C   0  0  0  0  0  0  0  0  0  0  0  0
   -0.6794    0.4032    0.5543 C   0  0  2  0  0  0  0  0  0  0  0  0
    1.3420   -0.2433    0.7008 C   0  0  1  0  0  0  0  0  0  0  0  0
    0.0021   -0.9797    0.4930 C   0  0  0  0  0  0  0  0  0  0  0  0
    0.8494    1.1243   -1.4061 C   0  0  0  0  0  0  0  0  0  0  0  0
    0.9948    2.3200    0.7634 C   0  0  0  0  0  0  0  0  0  0  0  0
   -1.8573    0.5434   -0.4072 C   0  0  0  0  0  0  0  0  0  0  0  0
    2.5762   -0.8212   -0.0567 C   0  0  0  0  0  0  0  0  0  0  0  0
   -3.0543   -0.2964   -0.0392 C   0  0  0  0  0  0  0  0  0  0  0  0
    3.8322    0.0077   -0.0577 C   0  0  0  0  0  0  0  0  0  0  0  0
   -0.9554    0.6888    1.5798 H   0  0  0  0  0  0  0  0  0  0  0  0
    1.5688   -0.1267    1.7714 H   0  0  0  0  0  0  0  0  0  0  0  0
   -0.0977   -1.5075   -0.4628 H   0  0  0  0  0  0  0  0  0  0  0  0
   -0.2748   -1.6703    1.2954 H   0  0  0  0  0  0  0  0  0  0  0  0
    1.8538    1.4704   -1.6684 H   0  0  0  0  0  0  0  0  0  0  0  0
    0.6849    0.1834   -1.9421 H   0  0  0  0  0  0  0  0  0  0  0  0
    0.1585    1.8638   -1.8284 H   0  0  0  0  0  0  0  0  0  0  0  0
    2.0268    2.6240    0.5577 H   0  0  0  0  0  0  0  0  0  0  0  0
    0.3326    3.1192    0.4124 H   0  0  0  0  0  0  0  0  0  0  0  0
    0.8854    2.2579    1.8520 H   0  0  0  0  0  0  0  0  0  0  0  0
   -1.5822    0.2474   -1.4252 H   0  0  0  0  0  0  0  0  0  0  0  0
   -2.1786    1.5912   -0.4249 H   0  0  0  0  0  0  0  0  0  0  0  0
    3.6855    0.9425   -0.5979 H   0  0  0  0  0  0  0  0  0  0  0  0
    4.1269    0.2158    0.9740 H   0  0  0  0  0  0  0  0  0  0  0  0
    4.6378   -0.5530   -0.5405 H   0  0  0  0  0  0  0  0  0  0  0  0
   -4.8593   -0.6258   -0.6958 H   0  0  0  0  0  0  0  0  0  0  0  0
  1 11  2  0  0  0  0
  2 12  1  0  0  0  0
  2 29  1  0  0  0  0
  3 12  2  0  0  0  0
  4  5  1  0  0  0  0
  4  6  1  0  0  0  0
  4  8  1  0  0  0  0
  4  9  1  0  0  0  0
  5  7  1  0  0  0  0
  5 10  1  0  0  0  0
  5 14  1  0  0  0  0
  6  7  1  0  0  0  0
  6 11  1  0  0  0  0
  6 15  1  0  0  0  0
  7 16  1  0  0  0  0
  7 17  1  0  0  0  0
  8 18  1  0  0  0  0
  8 19  1  0  0  0  0
  8 20  1  0  0  0  0
  9 21  1  0  0  0  0
  9 22  1  0  0  0  0
  9 23  1  0  0  0  0
 10 12  1  0  0  0  0
 10 24  1  0  0  0  0
 10 25  1  0  0  0  0
 11 13  1  0  0  0  0
 13 26  1  0  0  0  0
 13 27  1  0  0  0  0
 13 28  1  0  0  0  0
M  END
> <PUBCHEM_COMPOUND_CID>
10130

> <PUBCHEM_CONFORMER_RMSD>
0.6

> <PUBCHEM_CONFORMER_DIVERSEORDER>
14
28
17
19
35
23
18
16
27
33
34
31
21
26
32
25
15
4
22
5
24
7
30
8
10
11
1
20
13
2
3
29
12
6
9

> <PUBCHEM_MMFF94_PARTIAL_CHARGES>
9
1 -0.57
10 0.06
11 0.46
12 0.66
13 0.06
2 -0.65
29 0.5
3 -0.57
6 0.05

> <PUBCHEM_EFFECTIVE_ROTOR_COUNT>
3.8

> <PUBCHEM_PHARMACOPHORE_FEATURES>
6
1 1 acceptor
1 2 acceptor
1 3 acceptor
3 2 3 12 anion
3 4 8 9 hydrophobe
4 4 5 6 7 rings

> <PUBCHEM_HEAVY_ATOM_COUNT>
13

> <PUBCHEM_ATOM_DEF_STEREO_COUNT>
0

> <PUBCHEM_ATOM_UDEF_STEREO_COUNT>
2

> <PUBCHEM_BOND_DEF_STEREO_COUNT>
0

> <PUBCHEM_BOND_UDEF_STEREO_COUNT>
0

> <PUBCHEM_ISOTOPIC_ATOM_COUNT>
0

> <PUBCHEM_COMPONENT_COUNT>
1

> <PUBCHEM_CACTVS_TAUTO_COUNT>
3

> <PUBCHEM_CONFORMER_ID>
000027920000000E

> <PUBCHEM_MMFF94_ENERGY>
24.0279

> <PUBCHEM_FEATURE_SELFOVERLAP>
30.502

> <PUBCHEM_SHAPE_FINGERPRINT>
10219947 1 17967814955034922742
11769659 78 18115029726408485294
11806522 49 18409733923945164595
12032990 46 18410005568000366570
12423570 1 14354998975153796480
13705890 14 17988918959838590310
14128692 85 18271798042730604717
14251717 144 18334580114090814822
14993402 34 18187364324536040926
15219456 202 18198624341374696153
15477762 27 18334017172442673407
16945 1 18261399918559679784
18186145 218 17774996933724314710
20201158 50 18412825797871501186
20233049 118 15769509693439618453
20645477 70 18335992973932727791
20711985 327 17530679905129650625
21256008 61 18261116252959724524
21293036 1 18131912667497283070
22926399 65 16917076602278703133
23402539 116 17703517635990655326
23559900 14 18131069351407406378
5084963 1 18060416885357316849
7364860 26 18262802839367325640
81228 2 18049438437779379488

> <PUBCHEM_SHAPE_MULTIPOLES>
249.93
5.68
1.68
1.03
2.92
0.46
0.16
-1.96
0.83
-0.91
-0.15
0.09
0.18
0.41

> <PUBCHEM_SHAPE_SELFOVERLAP>
500.472

> <PUBCHEM_SHAPE_VOLUME>
149.4

> <PUBCHEM_COORDINATE_TYPE>
2
5
10

$$$$

