11346
  -OEChem-06261205343D

 19 19  0     0  0  0  0  0  0999 V2000
    1.9855    1.2763    1.1543 O   0  0  0  0  0  0  0  0  0  0  0  0
    0.2194   -2.8626   -0.0237 O   0  5  0  0  0  0  0  0  0  0  0  0
    1.8112   -1.3522    0.0391 O   0  0  0  0  0  0  0  0  0  0  0  0
    0.5988   -1.6684    0.0059 N   0  3  0  0  0  0  0  0  0  0  0  0
   -0.0104    0.7082    0.0330 C   0  0  0  0  0  0  0  0  0  0  0  0
   -0.3805   -0.6362    0.0013 C   0  0  0  0  0  0  0  0  0  0  0  0
   -0.9897    1.7016    0.0273 C   0  0  0  0  0  0  0  0  0  0  0  0
   -1.7299   -0.9874   -0.0360 C   0  0  0  0  0  0  0  0  0  0  0  0
    1.3894    1.1143    0.0730 C   0  0  0  0  0  0  0  0  0  0  0  0
   -2.3392    1.3503   -0.0101 C   0  0  0  0  0  0  0  0  0  0  0  0
   -2.7093    0.0058   -0.0418 C   0  0  0  0  0  0  0  0  0  0  0  0
    2.1547    1.3503   -1.2223 C   0  0  0  0  0  0  0  0  0  0  0  0
   -0.7144    2.7529    0.0518 H   0  0  0  0  0  0  0  0  0  0  0  0
   -2.0597   -2.0229   -0.0615 H   0  0  0  0  0  0  0  0  0  0  0  0
   -3.1018    2.1236   -0.0146 H   0  0  0  0  0  0  0  0  0  0  0  0
   -3.7601   -0.2670   -0.0710 H   0  0  0  0  0  0  0  0  0  0  0  0
    2.3602    2.4188   -1.3256 H   0  0  0  0  0  0  0  0  0  0  0  0
    1.5655    1.0168   -2.0812 H   0  0  0  0  0  0  0  0  0  0  0  0
    3.0911    0.7870   -1.2025 H   0  0  0  0  0  0  0  0  0  0  0  0
  1  9  2  0  0  0  0
  2  4  1  0  0  0  0
  3  4  2  0  0  0  0
  4  6  1  0  0  0  0
  5  6  1  0  0  0  0
  5  7  2  0  0  0  0
  5  9  1  0  0  0  0
  6  8  2  0  0  0  0
  7 10  1  0  0  0  0
  7 13  1  0  0  0  0
  8 11  1  0  0  0  0
  8 14  1  0  0  0  0
  9 12  1  0  0  0  0
 10 11  2  0  0  0  0
 10 15  1  0  0  0  0
 11 16  1  0  0  0  0
 12 17  1  0  0  0  0
 12 18  1  0  0  0  0
 12 19  1  0  0  0  0
M  CHG  2   2  -1   4   1
M  END
> <PUBCHEM_COMPOUND_CID>
11346

> <PUBCHEM_CONFORMER_RMSD>
0.6

> <PUBCHEM_CONFORMER_DIVERSEORDER>
1
2

> <PUBCHEM_MMFF94_PARTIAL_CHARGES>
16
1 -0.57
10 -0.15
11 -0.15
12 0.06
13 0.15
14 0.15
15 0.15
16 0.15
2 -0.52
3 -0.52
4 0.91
5 0.09
6 0.13
7 -0.15
8 -0.15
9 0.42

> <PUBCHEM_EFFECTIVE_ROTOR_COUNT>
2

> <PUBCHEM_PHARMACOPHORE_FEATURES>
5
1 1 acceptor
1 2 acceptor
1 2 anion
1 3 acceptor
6 5 6 7 8 10 11 rings

> <PUBCHEM_HEAVY_ATOM_COUNT>
12

> <PUBCHEM_ATOM_DEF_STEREO_COUNT>
0

> <PUBCHEM_ATOM_UDEF_STEREO_COUNT>
0

> <PUBCHEM_BOND_DEF_STEREO_COUNT>
0

> <PUBCHEM_BOND_UDEF_STEREO_COUNT>
0

> <PUBCHEM_ISOTOPIC_ATOM_COUNT>
0

> <PUBCHEM_COMPONENT_COUNT>
1

> <PUBCHEM_CACTVS_TAUTO_COUNT>
2

> <PUBCHEM_CONFORMER_ID>
00002C5200000001

> <PUBCHEM_MMFF94_ENERGY>
44.7608

> <PUBCHEM_FEATURE_SELFOVERLAP>
25.456

> <PUBCHEM_SHAPE_FINGERPRINT>
12423570 1 16167209302863183278
12524768 44 17469888152317409983
12716758 59 18121205494596635044
14128692 85 18118682351248637215
16945 1 18122344841866414893
18185500 45 17762614397044414103
193761 8 18266458887691953601
20511035 2 18191874645950896269
20645476 183 17701536204030415996
20871998 184 17467911866054954268
21040471 1 18266459815067370376
21501502 16 18338794628191476761
22802520 49 17829862388189039748
2334 1 18338516344190798735
23552423 10 18341610485885903557
241688 4 17187002536363147291
2748010 2 18411416185568215679
5084963 1 18042953298960089381
7364860 26 18188775092269716999

> <PUBCHEM_SHAPE_MULTIPOLES>
224.37
3.23
2.41
0.81
0.44
1.52
-0.02
-1.16
-0.22
-0.3
-0.04
-0.45
-0.27
-0.1

> <PUBCHEM_SHAPE_SELFOVERLAP>
472.891

> <PUBCHEM_SHAPE_VOLUME>
126.4

> <PUBCHEM_COORDINATE_TYPE>
2
5
10

$$$$

