17396085
  -OEChem-06241222542D

 60 63  0     1  0  0  0  0  0999 V2000
    6.3582   -4.0248    0.0000 S   0  0  0  0  0  0  0  0  0  0  0  0
    5.5491   -5.6126    0.0000 S   0  0  0  0  0  0  0  0  0  0  0  0
    7.3582   -4.0248    0.0000 O   0  0  0  0  0  0  0  0  0  0  0  0
    5.3582   -4.0248    0.0000 O   0  0  0  0  0  0  0  0  0  0  0  0
    3.7601   -1.5248    0.0000 O   0  0  0  0  0  0  0  0  0  0  0  0
    6.3582   -3.0248    0.0000 N   0  0  3  0  0  0  0  0  0  0  0  0
    4.6261   -0.0248    0.0000 N   0  0  0  0  0  0  0  0  0  0  0  0
    3.2601    3.0140    0.0000 N   0  0  0  0  0  0  0  0  0  0  0  0
    4.2601    3.0140    0.0000 N   0  0  0  0  0  0  0  0  0  0  0  0
    5.4921   -1.5248    0.0000 C   0  0  3  0  0  0  0  0  0  0  0  0
    6.3582   -1.0248    0.0000 C   0  0  0  0  0  0  0  0  0  0  0  0
    5.4921   -2.5248    0.0000 C   0  0  0  0  0  0  0  0  0  0  0  0
    7.2242   -1.5248    0.0000 C   0  0  0  0  0  0  0  0  0  0  0  0
    7.2242   -2.5248    0.0000 C   0  0  0  0  0  0  0  0  0  0  0  0
    4.6261   -1.0248    0.0000 C   0  0  0  0  0  0  0  0  0  0  0  0
    6.3582   -5.0248    0.0000 C   0  0  0  0  0  0  0  0  0  0  0  0
    3.7601    0.4752    0.0000 C   0  0  0  0  0  0  0  0  0  0  0  0
    3.7601    1.4752    0.0000 C   0  0  0  0  0  0  0  0  0  0  0  0
    2.9511    2.0630    0.0000 C   0  0  0  0  0  0  0  0  0  0  0  0
    7.1672   -5.6126    0.0000 C   0  0  0  0  0  0  0  0  0  0  0  0
    4.5691    2.0630    0.0000 C   0  0  0  0  0  0  0  0  0  0  0  0
    2.6723    3.8230    0.0000 C   0  0  0  0  0  0  0  0  0  0  0  0
    2.0000    1.7539    0.0000 C   0  0  0  0  0  0  0  0  0  0  0  0
    6.8582   -6.5637    0.0000 C   0  0  0  0  0  0  0  0  0  0  0  0
    5.8582   -6.5637    0.0000 C   0  0  0  0  0  0  0  0  0  0  0  0
    5.5202    1.7539    0.0000 C   0  0  0  0  0  0  0  0  0  0  0  0
    3.0790    4.7366    0.0000 C   0  0  0  0  0  0  0  0  0  0  0  0
    4.0736    4.8411    0.0000 C   0  0  0  0  0  0  0  0  0  0  0  0
    2.4912    5.5456    0.0000 C   0  0  0  0  0  0  0  0  0  0  0  0
    4.4803    5.7546    0.0000 C   0  0  0  0  0  0  0  0  0  0  0  0
    2.8980    6.4591    0.0000 C   0  0  0  0  0  0  0  0  0  0  0  0
    3.8925    6.5637    0.0000 C   0  0  0  0  0  0  0  0  0  0  0  0
    4.9552   -1.8348    0.0000 H   0  0  0  0  0  0  0  0  0  0  0  0
    6.7567   -0.5499    0.0000 H   0  0  0  0  0  0  0  0  0  0  0  0
    5.9596   -0.5499    0.0000 H   0  0  0  0  0  0  0  0  0  0  0  0
    4.8815   -2.4172    0.0000 H   0  0  0  0  0  0  0  0  0  0  0  0
    5.2801   -3.1074    0.0000 H   0  0  0  0  0  0  0  0  0  0  0  0
    7.8348   -1.6325    0.0000 H   0  0  0  0  0  0  0  0  0  0  0  0
    7.4362   -0.9422    0.0000 H   0  0  0  0  0  0  0  0  0  0  0  0
    7.4362   -3.1074    0.0000 H   0  0  0  0  0  0  0  0  0  0  0  0
    7.8348   -2.4172    0.0000 H   0  0  0  0  0  0  0  0  0  0  0  0
    5.1630    0.2852    0.0000 H   0  0  0  0  0  0  0  0  0  0  0  0
    3.1495    0.5828    0.0000 H   0  0  0  0  0  0  0  0  0  0  0  0
    3.5480   -0.1074    0.0000 H   0  0  0  0  0  0  0  0  0  0  0  0
    7.7568   -5.4210    0.0000 H   0  0  0  0  0  0  0  0  0  0  0  0
    2.1583    4.1697    0.0000 H   0  0  0  0  0  0  0  0  0  0  0  0
    2.2416    3.3770    0.0000 H   0  0  0  0  0  0  0  0  0  0  0  0
    1.8084    2.3436    0.0000 H   0  0  0  0  0  0  0  0  0  0  0  0
    1.4103    1.5623    0.0000 H   0  0  0  0  0  0  0  0  0  0  0  0
    2.1916    1.1643    0.0000 H   0  0  0  0  0  0  0  0  0  0  0  0
    7.2226   -7.0653    0.0000 H   0  0  0  0  0  0  0  0  0  0  0  0
    5.4937   -7.0653    0.0000 H   0  0  0  0  0  0  0  0  0  0  0  0
    5.3286    1.1643    0.0000 H   0  0  0  0  0  0  0  0  0  0  0  0
    6.1098    1.5623    0.0000 H   0  0  0  0  0  0  0  0  0  0  0  0
    5.7117    2.3436    0.0000 H   0  0  0  0  0  0  0  0  0  0  0  0
    4.4380    4.3395    0.0000 H   0  0  0  0  0  0  0  0  0  0  0  0
    1.8746    5.4808    0.0000 H   0  0  0  0  0  0  0  0  0  0  0  0
    5.0969    5.8195    0.0000 H   0  0  0  0  0  0  0  0  0  0  0  0
    2.5336    6.9607    0.0000 H   0  0  0  0  0  0  0  0  0  0  0  0
    4.1447    7.1301    0.0000 H   0  0  0  0  0  0  0  0  0  0  0  0
  1  3  2  0  0  0  0
  1  4  2  0  0  0  0
  1  6  1  0  0  0  0
  1 16  1  0  0  0  0
  2 16  1  0  0  0  0
  2 25  1  0  0  0  0
  5 15  2  0  0  0  0
  6 12  1  0  0  0  0
  6 14  1  0  0  0  0
  7 15  1  0  0  0  0
  7 17  1  0  0  0  0
  7 42  1  0  0  0  0
  8  9  1  0  0  0  0
  8 19  1  0  0  0  0
  8 22  1  0  0  0  0
  9 21  2  0  0  0  0
 10 11  1  0  0  0  0
 10 12  1  0  0  0  0
 10 15  1  0  0  0  0
 10 33  1  0  0  0  0
 11 13  1  0  0  0  0
 11 34  1  0  0  0  0
 11 35  1  0  0  0  0
 12 36  1  0  0  0  0
 12 37  1  0  0  0  0
 13 14  1  0  0  0  0
 13 38  1  0  0  0  0
 13 39  1  0  0  0  0
 14 40  1  0  0  0  0
 14 41  1  0  0  0  0
 16 20  2  0  0  0  0
 17 18  1  0  0  0  0
 17 43  1  0  0  0  0
 17 44  1  0  0  0  0
 18 19  2  0  0  0  0
 18 21  1  0  0  0  0
 19 23  1  0  0  0  0
 20 24  1  0  0  0  0
 20 45  1  0  0  0  0
 21 26  1  0  0  0  0
 22 27  1  0  0  0  0
 22 46  1  0  0  0  0
 22 47  1  0  0  0  0
 23 48  1  0  0  0  0
 23 49  1  0  0  0  0
 23 50  1  0  0  0  0
 24 25  2  0  0  0  0
 24 51  1  0  0  0  0
 25 52  1  0  0  0  0
 26 53  1  0  0  0  0
 26 54  1  0  0  0  0
 26 55  1  0  0  0  0
 27 28  2  0  0  0  0
 27 29  1  0  0  0  0
 28 30  1  0  0  0  0
 28 56  1  0  0  0  0
 29 31  2  0  0  0  0
 29 57  1  0  0  0  0
 30 32  2  0  0  0  0
 30 58  1  0  0  0  0
 31 32  1  0  0  0  0
 31 59  1  0  0  0  0
 32 60  1  0  0  0  0
M  END
> <PUBCHEM_COMPOUND_CID>
17396085

> <PUBCHEM_COMPOUND_CANONICALIZED>
1

> <PUBCHEM_CACTVS_COMPLEXITY>
738

> <PUBCHEM_CACTVS_HBOND_ACCEPTOR>
6

> <PUBCHEM_CACTVS_HBOND_DONOR>
1

> <PUBCHEM_CACTVS_ROTATABLE_BOND>
7

> <PUBCHEM_CACTVS_SUBSKEYS>
AAADceB7sABgAAAAAAAAAAAAAAAAAWJAAAA8QAAAAAAAAAAB8AAAHgQYQAAADQjF3gSygZLIAAquAyVyVHDTBZAhiBBY2Lk4RJgIIDrg0dGEpAhgngDoyAcYgQAOAAAAAAAAAAAAAAAAAAAAAAAAAAAAAA==

> <PUBCHEM_IUPAC_OPENEYE_NAME>
N-[(1-benzyl-3,5-dimethyl-pyrazol-4-yl)methyl]-1-(2-thienylsulfonyl)piperidine-3-carboxamide

> <PUBCHEM_IUPAC_CAS_NAME>
N-[[3,5-dimethyl-1-(phenylmethyl)-4-pyrazolyl]methyl]-1-thiophen-2-ylsulfonyl-3-piperidinecarboxamide

> <PUBCHEM_IUPAC_NAME>
N-[(1-benzyl-3,5-dimethylpyrazol-4-yl)methyl]-1-thiophen-2-ylsulfonylpiperidine-3-carboxamide

> <PUBCHEM_IUPAC_SYSTEMATIC_NAME>
N-[[3,5-dimethyl-1-(phenylmethyl)pyrazol-4-yl]methyl]-1-thiophen-2-ylsulfonyl-piperidine-3-carboxamide

> <PUBCHEM_IUPAC_TRADITIONAL_NAME>
N-[(1-benzyl-3,5-dimethyl-pyrazol-4-yl)methyl]-1-(2-thienylsulfonyl)nipecotamide

> <PUBCHEM_IUPAC_INCHI>
InChI=1S/C23H28N4O3S2/c1-17-21(18(2)27(25-17)15-19-8-4-3-5-9-19)14-24-23(28)20-10-6-12-26(16-20)32(29,30)22-11-7-13-31-22/h3-5,7-9,11,13,20H,6,10,12,14-16H2,1-2H3,(H,24,28)

> <PUBCHEM_IUPAC_INCHIKEY>
DWODQWMLEFHHNW-UHFFFAOYSA-N

> <PUBCHEM_XLOGP3_AA>
3.1

> <PUBCHEM_EXACT_MASS>
472.160283

> <PUBCHEM_MOLECULAR_FORMULA>
C23H28N4O3S2

> <PUBCHEM_MOLECULAR_WEIGHT>
472.62342

> <PUBCHEM_OPENEYE_CAN_SMILES>
CC1=C(C(=NN1CC2=CC=CC=C2)C)CNC(=O)C3CCCN(C3)S(=O)(=O)C4=CC=CS4

> <PUBCHEM_OPENEYE_ISO_SMILES>
CC1=C(C(=NN1CC2=CC=CC=C2)C)CNC(=O)C3CCCN(C3)S(=O)(=O)C4=CC=CS4

> <PUBCHEM_CACTVS_TPSA>
121

> <PUBCHEM_MONOISOTOPIC_WEIGHT>
472.160283

> <PUBCHEM_TOTAL_CHARGE>
0

> <PUBCHEM_HEAVY_ATOM_COUNT>
32

> <PUBCHEM_ATOM_DEF_STEREO_COUNT>
0

> <PUBCHEM_ATOM_UDEF_STEREO_COUNT>
1

> <PUBCHEM_BOND_DEF_STEREO_COUNT>
0

> <PUBCHEM_BOND_UDEF_STEREO_COUNT>
0

> <PUBCHEM_ISOTOPIC_ATOM_COUNT>
0

> <PUBCHEM_COMPONENT_COUNT>
1

> <PUBCHEM_CACTVS_TAUTO_COUNT>
2

> <PUBCHEM_COORDINATE_TYPE>
1
5
255

> <PUBCHEM_BONDANNOTATIONS>
10  15  3
16  20  8
18  19  8
18  21  8
2  16  8
2  25  8
20  24  8
24  25  8
27  28  8
27  29  8
28  30  8
29  31  8
30  32  8
31  32  8
8  19  8
8  9  8
9  21  8

$$$$

