6504
  -OEChem-06261201213D

 44 43  0     0  0  0  0  0  0999 V2000
   -0.6713    1.0246   -0.4878 O   0  0  0  0  0  0  0  0  0  0  0  0
    1.1754   -1.9346    0.3151 O   0  0  0  0  0  0  0  0  0  0  0  0
   -3.2641   -0.3616    0.2203 O   0  0  0  0  0  0  0  0  0  0  0  0
    3.0881    0.7758    0.2352 O   0  0  0  0  0  0  0  0  0  0  0  0
    0.6350   -0.9383   -1.6907 O   0  0  0  0  0  0  0  0  0  0  0  0
   -2.1494   -2.3690   -0.0173 O   0  0  0  0  0  0  0  0  0  0  0  0
    1.8490    2.7048   -0.0281 O   0  0  0  0  0  0  0  0  0  0  0  0
   -1.4441    2.2593    1.3053 O   0  0  0  0  0  0  0  0  0  0  0  0
   -0.0607    0.0939    0.4069 C   0  0  0  0  0  0  0  0  0  0  0  0
   -1.1572   -0.5688    1.2561 C   0  0  0  0  0  0  0  0  0  0  0  0
    0.9637    0.8564    1.2596 C   0  0  0  0  0  0  0  0  0  0  0  0
    0.6112   -0.9661   -0.4663 C   0  0  0  0  0  0  0  0  0  0  0  0
   -2.2307   -1.2286    0.4205 C   0  0  0  0  0  0  0  0  0  0  0  0
    1.9995    1.5759    0.4211 C   0  0  0  0  0  0  0  0  0  0  0  0
   -1.3323    2.0622    0.1029 C   0  0  0  0  0  0  0  0  0  0  0  0
    1.8407   -2.9874   -0.3893 C   0  0  0  0  0  0  0  0  0  0  0  0
   -4.3400   -0.8599   -0.5808 C   0  0  0  0  0  0  0  0  0  0  0  0
    4.1353    1.3352   -0.5634 C   0  0  0  0  0  0  0  0  0  0  0  0
   -1.9178    2.9521   -0.9513 C   0  0  0  0  0  0  0  0  0  0  0  0
    2.4067   -3.9705    0.6130 C   0  0  0  0  0  0  0  0  0  0  0  0
   -5.3991    0.2142   -0.7075 C   0  0  0  0  0  0  0  0  0  0  0  0
    5.2621    0.3303   -0.6734 C   0  0  0  0  0  0  0  0  0  0  0  0
   -0.7289   -1.3545    1.8932 H   0  0  0  0  0  0  0  0  0  0  0  0
   -1.6449    0.1032    1.9683 H   0  0  0  0  0  0  0  0  0  0  0  0
    0.5505    1.5880    1.9574 H   0  0  0  0  0  0  0  0  0  0  0  0
    1.4972    0.1522    1.9136 H   0  0  0  0  0  0  0  0  0  0  0  0
    2.6522   -2.5660   -0.9931 H   0  0  0  0  0  0  0  0  0  0  0  0
    1.1255   -3.4969   -1.0446 H   0  0  0  0  0  0  0  0  0  0  0  0
   -4.7689   -1.7487   -0.1046 H   0  0  0  0  0  0  0  0  0  0  0  0
   -3.9619   -1.1258   -1.5743 H   0  0  0  0  0  0  0  0  0  0  0  0
    4.5028    2.2539   -0.0928 H   0  0  0  0  0  0  0  0  0  0  0  0
    3.7479    1.5674   -1.5617 H   0  0  0  0  0  0  0  0  0  0  0  0
   -1.1163    3.3969   -1.5462 H   0  0  0  0  0  0  0  0  0  0  0  0
   -2.4875    3.7541   -0.4735 H   0  0  0  0  0  0  0  0  0  0  0  0
   -2.5959    2.3772   -1.5870 H   0  0  0  0  0  0  0  0  0  0  0  0
    2.9235   -4.7909    0.1075 H   0  0  0  0  0  0  0  0  0  0  0  0
    1.6089   -4.3859    1.2377 H   0  0  0  0  0  0  0  0  0  0  0  0
    3.1104   -3.4707    1.2870 H   0  0  0  0  0  0  0  0  0  0  0  0
   -5.7728    0.5050    0.2797 H   0  0  0  0  0  0  0  0  0  0  0  0
   -4.9806    1.1157   -1.1668 H   0  0  0  0  0  0  0  0  0  0  0  0
   -6.2390   -0.1342   -1.3150 H   0  0  0  0  0  0  0  0  0  0  0  0
    5.6485    0.0746    0.3187 H   0  0  0  0  0  0  0  0  0  0  0  0
    4.9042   -0.6012   -1.1245 H   0  0  0  0  0  0  0  0  0  0  0  0
    6.0811    0.7256   -1.2807 H   0  0  0  0  0  0  0  0  0  0  0  0
  1  9  1  0  0  0  0
  1 15  1  0  0  0  0
  2 12  1  0  0  0  0
  2 16  1  0  0  0  0
  3 13  1  0  0  0  0
  3 17  1  0  0  0  0
  4 14  1  0  0  0  0
  4 18  1  0  0  0  0
  5 12  2  0  0  0  0
  6 13  2  0  0  0  0
  7 14  2  0  0  0  0
  8 15  2  0  0  0  0
  9 10  1  0  0  0  0
  9 11  1  0  0  0  0
  9 12  1  0  0  0  0
 10 13  1  0  0  0  0
 10 23  1  0  0  0  0
 10 24  1  0  0  0  0
 11 14  1  0  0  0  0
 11 25  1  0  0  0  0
 11 26  1  0  0  0  0
 15 19  1  0  0  0  0
 16 20  1  0  0  0  0
 16 27  1  0  0  0  0
 16 28  1  0  0  0  0
 17 21  1  0  0  0  0
 17 29  1  0  0  0  0
 17 30  1  0  0  0  0
 18 22  1  0  0  0  0
 18 31  1  0  0  0  0
 18 32  1  0  0  0  0
 19 33  1  0  0  0  0
 19 34  1  0  0  0  0
 19 35  1  0  0  0  0
 20 36  1  0  0  0  0
 20 37  1  0  0  0  0
 20 38  1  0  0  0  0
 21 39  1  0  0  0  0
 21 40  1  0  0  0  0
 21 41  1  0  0  0  0
 22 42  1  0  0  0  0
 22 43  1  0  0  0  0
 22 44  1  0  0  0  0
M  END
> <PUBCHEM_COMPOUND_CID>
6504

> <PUBCHEM_CONFORMER_RMSD>
1

> <PUBCHEM_CONFORMER_DIVERSEORDER>
1
39
37
25
2
29
16
46
33
18
24
32
19
43
8
17
34
30
38
4
12
27
31
36
15
20
11
42
35
23
13
5
6
21
40
14
26
28
45
44
3
10
41
9
22
7

> <PUBCHEM_MMFF94_PARTIAL_CHARGES>
19
1 -0.43
10 0.06
11 0.06
12 0.66
13 0.66
14 0.66
15 0.66
16 0.28
17 0.28
18 0.28
19 0.06
2 -0.43
3 -0.43
4 -0.43
5 -0.57
6 -0.57
7 -0.57
8 -0.57
9 0.34

> <PUBCHEM_EFFECTIVE_ROTOR_COUNT>
13

> <PUBCHEM_PHARMACOPHORE_FEATURES>
4
1 5 acceptor
1 6 acceptor
1 7 acceptor
1 8 acceptor

> <PUBCHEM_HEAVY_ATOM_COUNT>
22

> <PUBCHEM_ATOM_DEF_STEREO_COUNT>
0

> <PUBCHEM_ATOM_UDEF_STEREO_COUNT>
0

> <PUBCHEM_BOND_DEF_STEREO_COUNT>
0

> <PUBCHEM_BOND_UDEF_STEREO_COUNT>
0

> <PUBCHEM_ISOTOPIC_ATOM_COUNT>
0

> <PUBCHEM_COMPONENT_COUNT>
1

> <PUBCHEM_CACTVS_TAUTO_COUNT>
1

> <PUBCHEM_CONFORMER_ID>
0000196800000001

> <PUBCHEM_MMFF94_ENERGY>
31.1643

> <PUBCHEM_FEATURE_SELFOVERLAP>
20.297

> <PUBCHEM_SHAPE_FINGERPRINT>
10756046 5 18268151052855506941
11578080 2 17487625349263318998
12011746 2 18411135822782365028
12592029 89 18409731764025007874
12969540 114 18051994535788596549
13140716 1 18193263096875974483
13464514 151 18412266108330864571
16945 1 18410579469861728609
19591789 44 18122060897389575778
20905425 154 18189892187957703196
21421861 104 18271527610294498603
21501502 16 18263640839110421633
2334 1 17832424198372871938
23366157 5 17986947638938806002
23402539 116 18337676317396822909
23419403 2 17536069823209485451
23493267 7 17774444863028504321
23557571 272 17632289026607260339
23558518 356 18198054988041839257
23559900 14 18412549816374207506
23566358 2 18266180706559527013
25147074 1 18043242634053668585
266924 87 18412265072853557565
2748010 2 18121498217707253841
3250762 1 18268149927563538921
43471831 8 18411134741020377034

> <PUBCHEM_SHAPE_MULTIPOLES>
405.8
7.8
3.81
1.11
1.46
1.9
0.03
-0.34
-2.52
-2.01
0.11
0.07
-0.13
-0.12

> <PUBCHEM_SHAPE_SELFOVERLAP>
798.226

> <PUBCHEM_SHAPE_VOLUME>
241.1

> <PUBCHEM_COORDINATE_TYPE>
2
5
10

$$$$

