586301
  -OEChem-06241222463D

 39 39  0     0  0  0  0  0  0999 V2000
    3.0170    2.1942    0.3498 O   0  0  0  0  0  0  0  0  0  0  0  0
    1.0204   -1.4499   -0.1070 C   0  0  0  0  0  0  0  0  0  0  0  0
    0.3292   -0.0883   -0.3065 C   0  0  0  0  0  0  0  0  0  0  0  0
    2.2747   -1.2917    0.7809 C   0  0  0  0  0  0  0  0  0  0  0  0
   -1.1132   -0.1492   -0.7638 C   0  0  0  0  0  0  0  0  0  0  0  0
    3.1815   -0.1754    0.3072 C   0  0  0  0  0  0  0  0  0  0  0  0
    0.9581    1.0949   -0.1122 C   0  0  0  0  0  0  0  0  0  0  0  0
    0.1003   -2.4641    0.6102 C   0  0  0  0  0  0  0  0  0  0  0  0
    1.4158   -2.0339   -1.4791 C   0  0  0  0  0  0  0  0  0  0  0  0
   -2.0635   -0.1143    0.4255 C   0  0  0  0  0  0  0  0  0  0  0  0
    2.4240    1.1229    0.2163 C   0  0  0  0  0  0  0  0  0  0  0  0
   -3.5443   -0.1109    0.0013 C   0  0  0  0  0  0  0  0  0  0  0  0
    0.3137    2.4522   -0.2043 C   0  0  0  0  0  0  0  0  0  0  0  0
   -3.8185    1.0829   -0.9170 C   0  0  0  0  0  0  0  0  0  0  0  0
   -4.4951   -0.0694    1.1986 C   0  0  0  0  0  0  0  0  0  0  0  0
    2.8429   -2.2299    0.8175 H   0  0  0  0  0  0  0  0  0  0  0  0
    1.9688   -1.0761    1.8148 H   0  0  0  0  0  0  0  0  0  0  0  0
   -1.2968   -1.0419   -1.3720 H   0  0  0  0  0  0  0  0  0  0  0  0
   -1.2937    0.6808   -1.4536 H   0  0  0  0  0  0  0  0  0  0  0  0
    3.6243   -0.3928   -0.6696 H   0  0  0  0  0  0  0  0  0  0  0  0
    3.9974   -0.0492    1.0279 H   0  0  0  0  0  0  0  0  0  0  0  0
    0.6310   -3.4128    0.7626 H   0  0  0  0  0  0  0  0  0  0  0  0
   -0.1934   -2.1113    1.6046 H   0  0  0  0  0  0  0  0  0  0  0  0
   -0.7977   -2.7105    0.0354 H   0  0  0  0  0  0  0  0  0  0  0  0
    2.0137   -1.3293   -2.0674 H   0  0  0  0  0  0  0  0  0  0  0  0
    2.0029   -2.9521   -1.3622 H   0  0  0  0  0  0  0  0  0  0  0  0
    0.5344   -2.2880   -2.0787 H   0  0  0  0  0  0  0  0  0  0  0  0
   -1.9175   -0.9672    1.0909 H   0  0  0  0  0  0  0  0  0  0  0  0
   -1.8683    0.7756    1.0381 H   0  0  0  0  0  0  0  0  0  0  0  0
   -3.7526   -1.0314   -0.5588 H   0  0  0  0  0  0  0  0  0  0  0  0
   -0.7715    2.4250   -0.3195 H   0  0  0  0  0  0  0  0  0  0  0  0
    0.7230    3.0051   -1.0563 H   0  0  0  0  0  0  0  0  0  0  0  0
    0.5126    3.0269    0.7072 H   0  0  0  0  0  0  0  0  0  0  0  0
   -3.3535    0.9582   -1.8992 H   0  0  0  0  0  0  0  0  0  0  0  0
   -4.8941    1.1889   -1.0987 H   0  0  0  0  0  0  0  0  0  0  0  0
   -3.4629    2.0205   -0.4764 H   0  0  0  0  0  0  0  0  0  0  0  0
   -4.3528    0.8440    1.7860 H   0  0  0  0  0  0  0  0  0  0  0  0
   -4.3220   -0.9263    1.8580 H   0  0  0  0  0  0  0  0  0  0  0  0
   -5.5395   -0.1047    0.8711 H   0  0  0  0  0  0  0  0  0  0  0  0
  1 11  2  0  0  0  0
  2  3  1  0  0  0  0
  2  4  1  0  0  0  0
  2  8  1  0  0  0  0
  2  9  1  0  0  0  0
  3  5  1  0  0  0  0
  3  7  2  0  0  0  0
  4  6  1  0  0  0  0
  4 16  1  0  0  0  0
  4 17  1  0  0  0  0
  5 10  1  0  0  0  0
  5 18  1  0  0  0  0
  5 19  1  0  0  0  0
  6 11  1  0  0  0  0
  6 20  1  0  0  0  0
  6 21  1  0  0  0  0
  7 11  1  0  0  0  0
  7 13  1  0  0  0  0
  8 22  1  0  0  0  0
  8 23  1  0  0  0  0
  8 24  1  0  0  0  0
  9 25  1  0  0  0  0
  9 26  1  0  0  0  0
  9 27  1  0  0  0  0
 10 12  1  0  0  0  0
 10 28  1  0  0  0  0
 10 29  1  0  0  0  0
 12 14  1  0  0  0  0
 12 15  1  0  0  0  0
 12 30  1  0  0  0  0
 13 31  1  0  0  0  0
 13 32  1  0  0  0  0
 13 33  1  0  0  0  0
 14 34  1  0  0  0  0
 14 35  1  0  0  0  0
 14 36  1  0  0  0  0
 15 37  1  0  0  0  0
 15 38  1  0  0  0  0
 15 39  1  0  0  0  0
M  END
> <PUBCHEM_COMPOUND_CID>
586301

> <PUBCHEM_CONFORMER_RMSD>
0.6

> <PUBCHEM_CONFORMER_DIVERSEORDER>
1
2

> <PUBCHEM_MMFF94_PARTIAL_CHARGES>
8
1 -0.57
11 0.49
13 0.14
2 0.14
3 -0.28
5 0.14
6 0.06
7 -0.12

> <PUBCHEM_EFFECTIVE_ROTOR_COUNT>
3.6

> <PUBCHEM_PHARMACOPHORE_FEATURES>
4
1 1 acceptor
3 12 14 15 hydrophobe
3 2 8 9 hydrophobe
6 2 3 4 6 7 11 rings

> <PUBCHEM_HEAVY_ATOM_COUNT>
15

> <PUBCHEM_ATOM_DEF_STEREO_COUNT>
0

> <PUBCHEM_ATOM_UDEF_STEREO_COUNT>
0

> <PUBCHEM_BOND_DEF_STEREO_COUNT>
0

> <PUBCHEM_BOND_UDEF_STEREO_COUNT>
0

> <PUBCHEM_ISOTOPIC_ATOM_COUNT>
0

> <PUBCHEM_COMPONENT_COUNT>
1

> <PUBCHEM_CACTVS_TAUTO_COUNT>
5

> <PUBCHEM_CONFORMER_ID>
0008F23D00000001

> <PUBCHEM_MMFF94_ENERGY>
29.1157

> <PUBCHEM_FEATURE_SELFOVERLAP>
20.297

> <PUBCHEM_SHAPE_FINGERPRINT>
10219947 1 18411142436963266377
10465860 228 18041548235006019537
10608611 8 18271813453585199677
10980938 120 18408888421073161005
11067466 332 18130494318924926446
11132069 177 18262533536485843058
11471102 20 18339370746013409421
11471102 22 18342734135003056011
12346645 6 18260831509639430860
12390115 104 17689984653597834928
12654215 9 18270408307388551517
13140716 1 18267879280980123202
13296908 3 18340483491015757455
13380535 76 18337674096624657927
14251717 144 18410301315264041743
14252887 29 18335132150390262971
15219456 202 18273219711729614245
15502708 68 18411986857672440027
15775835 57 18187927218628630361
161256 15 18263358264759213812
16945 1 18114183072606370830
18186145 218 18334009467287084133
19049666 15 17914902165324694829
20279233 1 17988643030202754887
20511035 2 18194683653446811830
20645477 70 18335993068448148439
20871998 22 18118680160995028150
21501502 16 18267872670303202850
21503847 285 18043510897779548377
21524375 3 18120376449675098317
23419403 2 16769615673418910330
23557571 272 16845299388412223767
25 1 18334572408608405256
2748010 2 18341327825192348614
276578 36 18337106761604410632
3060560 45 18113898281988962566
633830 44 17895462653305543333
7364860 26 18187076290996589159
77492 1 17676215666939986517
81228 2 17472136649243040473
81539 233 18411981338570828196
9999458 23 17704352139646404430

> <PUBCHEM_SHAPE_MULTIPOLES>
302.82
6.37
2.45
1.06
7.26
0.22
0.14
1.22
-1.29
-1.81
0.09
0.33
-0.35
0.61

> <PUBCHEM_SHAPE_SELFOVERLAP>
599.696

> <PUBCHEM_SHAPE_VOLUME>
181.1

> <PUBCHEM_COORDINATE_TYPE>
2
5
10

$$$$

