9911
  -OEChem-06261204103D

 47 49  0     1  0  0  0  0  0999 V2000
    5.8241   -0.7655    0.8009 O   0  0  0  0  0  0  0  0  0  0  0  0
   -7.2427   -0.0859   -1.1697 O   0  5  0  0  0  0  0  0  0  0  0  0
   -6.1760    1.7788   -0.7180 O   0  0  0  0  0  0  0  0  0  0  0  0
    4.2019    0.2478   -0.4933 N   0  0  0  0  0  0  0  0  0  0  0  0
    1.7392    0.6460    0.8585 N   0  0  1  0  0  0  0  0  0  0  0  0
   -6.2362    0.5256   -0.7365 N   0  3  0  0  0  0  0  0  0  0  0  0
    2.4570    1.5735   -1.3682 C   0  0  1  0  0  0  0  0  0  0  0  0
    4.0410    1.4531    0.3289 C   0  0  1  0  0  0  0  0  0  0  0  0
    3.4919    2.4618   -0.6767 C   0  0  0  0  0  0  0  0  0  0  0  0
    3.2844    0.3042   -1.6366 C   0  0  0  0  0  0  0  0  0  0  0  0
    1.2979    1.3150   -0.3765 C   0  0  0  0  0  0  0  0  0  0  0  0
    2.9784    1.2100    1.4213 C   0  0  0  0  0  0  0  0  0  0  0  0
    0.6735    0.5894    1.8523 C   0  0  0  0  0  0  0  0  0  0  0  0
    5.0748   -0.7747   -0.1768 C   0  0  0  0  0  0  0  0  0  0  0  0
    5.0611   -1.9506   -1.1195 C   0  0  0  0  0  0  0  0  0  0  0  0
   -0.5175   -0.1649    1.3397 C   0  0  0  0  0  0  0  0  0  0  0  0
    6.0802   -2.9746   -0.6817 C   0  0  0  0  0  0  0  0  0  0  0  0
   -1.7374    0.3816    1.2162 C   0  0  0  0  0  0  0  0  0  0  0  0
   -2.9312   -0.3115    0.7035 C   0  0  0  0  0  0  0  0  0  0  0  0
   -4.0014    0.4338    0.2343 C   0  0  0  0  0  0  0  0  0  0  0  0
   -2.9621   -1.6972    0.6992 C   0  0  0  0  0  0  0  0  0  0  0  0
   -5.1317   -0.2235   -0.2519 C   0  0  0  0  0  0  0  0  0  0  0  0
   -4.0922   -2.3545    0.2131 C   0  0  0  0  0  0  0  0  0  0  0  0
   -5.1769   -1.6178   -0.2625 C   0  0  0  0  0  0  0  0  0  0  0  0
    2.0722    2.0148   -2.2924 H   0  0  0  0  0  0  0  0  0  0  0  0
    4.9947    1.7601    0.7689 H   0  0  0  0  0  0  0  0  0  0  0  0
    4.2682    2.7750   -1.3854 H   0  0  0  0  0  0  0  0  0  0  0  0
    3.0640    3.3547   -0.2105 H   0  0  0  0  0  0  0  0  0  0  0  0
    2.6809   -0.6054   -1.7027 H   0  0  0  0  0  0  0  0  0  0  0  0
    3.8889    0.4043   -2.5445 H   0  0  0  0  0  0  0  0  0  0  0  0
    0.8183    2.2754   -0.1448 H   0  0  0  0  0  0  0  0  0  0  0  0
    0.5596    0.6934   -0.8966 H   0  0  0  0  0  0  0  0  0  0  0  0
    3.3810    0.5043    2.1581 H   0  0  0  0  0  0  0  0  0  0  0  0
    2.7775    2.1550    1.9424 H   0  0  0  0  0  0  0  0  0  0  0  0
    0.3919    1.5986    2.1802 H   0  0  0  0  0  0  0  0  0  0  0  0
    1.0305    0.0575    2.7434 H   0  0  0  0  0  0  0  0  0  0  0  0
    4.0638   -2.4022   -1.1185 H   0  0  0  0  0  0  0  0  0  0  0  0
    5.2932   -1.6070   -2.1327 H   0  0  0  0  0  0  0  0  0  0  0  0
   -0.3246   -1.1947    1.0529 H   0  0  0  0  0  0  0  0  0  0  0  0
    6.0756   -3.8288   -1.3665 H   0  0  0  0  0  0  0  0  0  0  0  0
    5.8646   -3.3520    0.3238 H   0  0  0  0  0  0  0  0  0  0  0  0
    7.0927   -2.5564   -0.6760 H   0  0  0  0  0  0  0  0  0  0  0  0
   -1.8788    1.4240    1.4934 H   0  0  0  0  0  0  0  0  0  0  0  0
   -3.9454    1.5200    0.2495 H   0  0  0  0  0  0  0  0  0  0  0  0
   -2.1517   -2.3109    1.0792 H   0  0  0  0  0  0  0  0  0  0  0  0
   -4.1298   -3.4400    0.2095 H   0  0  0  0  0  0  0  0  0  0  0  0
   -6.0409   -2.1639   -0.6326 H   0  0  0  0  0  0  0  0  0  0  0  0
  1 14  2  0  0  0  0
  2  6  1  0  0  0  0
  3  6  2  0  0  0  0
  4  8  1  0  0  0  0
  4 10  1  0  0  0  0
  4 14  1  0  0  0  0
  5 11  1  0  0  0  0
  5 12  1  0  0  0  0
  5 13  1  0  0  0  0
  6 22  1  0  0  0  0
  7  9  1  0  0  0  0
  7 10  1  0  0  0  0
  7 11  1  0  0  0  0
  7 25  1  0  0  0  0
  8  9  1  0  0  0  0
  8 12  1  0  0  0  0
  8 26  1  0  0  0  0
  9 27  1  0  0  0  0
  9 28  1  0  0  0  0
 10 29  1  0  0  0  0
 10 30  1  0  0  0  0
 11 31  1  0  0  0  0
 11 32  1  0  0  0  0
 12 33  1  0  0  0  0
 12 34  1  0  0  0  0
 13 16  1  0  0  0  0
 13 35  1  0  0  0  0
 13 36  1  0  0  0  0
 14 15  1  0  0  0  0
 15 17  1  0  0  0  0
 15 37  1  0  0  0  0
 15 38  1  0  0  0  0
 16 18  2  0  0  0  0
 16 39  1  0  0  0  0
 17 40  1  0  0  0  0
 17 41  1  0  0  0  0
 17 42  1  0  0  0  0
 18 19  1  0  0  0  0
 18 43  1  0  0  0  0
 19 20  2  0  0  0  0
 19 21  1  0  0  0  0
 20 22  1  0  0  0  0
 20 44  1  0  0  0  0
 21 23  2  0  0  0  0
 21 45  1  0  0  0  0
 22 24  2  0  0  0  0
 23 24  1  0  0  0  0
 23 46  1  0  0  0  0
 24 47  1  0  0  0  0
M  CHG  2   2  -1   6   1
M  END
> <PUBCHEM_COMPOUND_CID>
9911

> <PUBCHEM_CONFORMER_RMSD>
0.8

> <PUBCHEM_CONFORMER_DIVERSEORDER>
2
28
70
36
47
66
24
116
45
56
91
58
40
54
43
76
30
107
87
55
93
29
101
83
105
90
26
86
64
42
74
81
51
99
59
78
67
92
46
111
82
41
85
113
117
21
44
84
38
79
97
18
94
71
11
95
114
89
65
102
34
33
109
103
63
10
14
39
80
100
60
118
61
16
72
23
112
98
20
8
22
110
108
49
77
6
57
50
17
13
7
73
104
106
88
69
37
115
48
62
15
96
53
12
5
4
32
3
25
31
1
27
9
52
35
68
19
75

> <PUBCHEM_MMFF94_PARTIAL_CHARGES>
27
1 -0.57
10 0.3
11 0.27
12 0.27
13 0.41
14 0.57
15 0.06
16 -0.29
18 -0.18
19 0.03
2 -0.52
20 -0.15
21 -0.15
22 0.13
23 -0.15
24 -0.15
3 -0.52
39 0.15
4 -0.66
43 0.15
44 0.15
45 0.15
46 0.15
47 0.15
5 -0.81
6 0.91
8 0.3

> <PUBCHEM_EFFECTIVE_ROTOR_COUNT>
7.2

> <PUBCHEM_PHARMACOPHORE_FEATURES>
8
1 1 acceptor
1 17 hydrophobe
1 2 acceptor
1 2 anion
1 3 acceptor
1 5 cation
6 19 20 21 22 23 24 rings
8 4 5 7 8 9 10 11 12 rings

> <PUBCHEM_HEAVY_ATOM_COUNT>
24

> <PUBCHEM_ATOM_DEF_STEREO_COUNT>
0

> <PUBCHEM_ATOM_UDEF_STEREO_COUNT>
0

> <PUBCHEM_BOND_DEF_STEREO_COUNT>
0

> <PUBCHEM_BOND_UDEF_STEREO_COUNT>
1

> <PUBCHEM_ISOTOPIC_ATOM_COUNT>
0

> <PUBCHEM_COMPONENT_COUNT>
1

> <PUBCHEM_CACTVS_TAUTO_COUNT>
1

> <PUBCHEM_CONFORMER_ID>
000026B700000002

> <PUBCHEM_MMFF94_ENERGY>
64.8529

> <PUBCHEM_FEATURE_SELFOVERLAP>
40.676

> <PUBCHEM_SHAPE_FINGERPRINT>
10378564 45 18202284710246786140
10447042 23 17603302639986778864
10613725 11 18131633395796603867
10670039 82 15051741918901336078
11135609 201 9727050007742423302
11796584 16 18410576171596293082
11858739 19 18407759239900981442
13533116 47 18113898260798754410
14251751 18 18259702281070097834
14251752 14 18412829092701851691
14251764 75 10734717264640284310
14341114 328 9151176424179947494
14848178 5 18114173160059579138
14849402 71 7853577890732296566
14910302 57 18409738352330740405
15119646 104 17458336477235058739
15183329 4 18202002152806409171
15188451 53 17676488406196225826
15475509 8 17560514113809393668
15728490 51 8430013370710022833
16126227 98 8861784981752976706
17857418 61 14345793829941975193
18222031 100 15502364604577041152
19377110 9 6699804298071419371
20028762 73 17676482904449245734
20567600 234 4967598486885535730
21307412 95 18058712724319172266
21315764 119 18412545435681443927
22061861 79 18407759231289934999
22079108 93 7781510404651287472
22224240 67 13912330075511049704
23198884 109 18410577280409745117
23559900 14 18334300842474545017
29717793 49 18342176652617089040
3004659 81 18411421717444044602
339767 52 16008752407279466975
38570 142 17346596422176826369
427121 178 5906049223819780196
4340502 62 7493281136617040268
437795 70 17774152534717091356
439807 62 18114464436521334159
44062 13 18339079281607835043
5104073 3 16950552273026271323
513532 50 18201443541492656792
5207 123 18339917208283843422
531348 171 18113340830263430407
54076057 255 14476951294737814550
633830 44 17059774403707027208
7808743 9 11239705341373307080
8988823 20 17095245800398019176
960060 61 17988911263811161958
9689198 14 11095871697183925674
9841814 1 16370717090063041760

> <PUBCHEM_SHAPE_MULTIPOLES>
461.36
17.78
2.48
1.48
14.46
1.19
0.16
6.28
-6.33
-2.77
-0.57
-0.5
-0.34
1.05

> <PUBCHEM_SHAPE_SELFOVERLAP>
975.961

> <PUBCHEM_SHAPE_VOLUME>
257.9

> <PUBCHEM_COORDINATE_TYPE>
2
5
10

$$$$

