582960
  -OEChem-06241222443D

 24 24  0     0  0  0  0  0  0999 V2000
    3.5724    1.2322   -0.0309 O   0  0  0  0  0  0  0  0  0  0  0  0
    5.8044   -0.2540    0.0412 O   0  0  0  0  0  0  0  0  0  0  0  0
    1.0643    0.4750   -0.0085 N   0  0  0  0  0  0  0  0  0  0  0  0
   -5.6737   -0.3894    0.0110 N   0  0  0  0  0  0  0  0  0  0  0  0
    2.0287   -0.5914   -0.0243 C   0  0  0  0  0  0  0  0  0  0  0  0
   -0.2928    0.3005   -0.0040 C   0  0  0  0  0  0  0  0  0  0  0  0
    3.4115    0.0121   -0.0077 C   0  0  0  0  0  0  0  0  0  0  0  0
   -0.8728   -0.9916   -0.0148 C   0  0  0  0  0  0  0  0  0  0  0  0
   -1.1799    1.4045    0.0105 C   0  0  0  0  0  0  0  0  0  0  0  0
   -2.2564   -1.1691   -0.0115 C   0  0  0  0  0  0  0  0  0  0  0  0
   -2.5635    1.2272    0.0139 C   0  0  0  0  0  0  0  0  0  0  0  0
   -3.1017   -0.0597    0.0029 C   0  0  0  0  0  0  0  0  0  0  0  0
    4.5786   -0.9549    0.0150 C   0  0  0  0  0  0  0  0  0  0  0  0
   -4.5190   -0.2414    0.0073 C   0  0  0  0  0  0  0  0  0  0  0  0
    1.9324   -1.1943   -0.9333 H   0  0  0  0  0  0  0  0  0  0  0  0
    1.9258   -1.2246    0.8632 H   0  0  0  0  0  0  0  0  0  0  0  0
    1.4062    1.4304   -0.0016 H   0  0  0  0  0  0  0  0  0  0  0  0
   -0.2504   -1.8834   -0.0268 H   0  0  0  0  0  0  0  0  0  0  0  0
   -0.7800    2.4167    0.0191 H   0  0  0  0  0  0  0  0  0  0  0  0
   -2.6614   -2.1783   -0.0201 H   0  0  0  0  0  0  0  0  0  0  0  0
   -3.2096    2.1018    0.0253 H   0  0  0  0  0  0  0  0  0  0  0  0
    4.5428   -1.5760   -0.8843 H   0  0  0  0  0  0  0  0  0  0  0  0
    4.5067   -1.5779    0.9108 H   0  0  0  0  0  0  0  0  0  0  0  0
    6.5148   -0.9178    0.0544 H   0  0  0  0  0  0  0  0  0  0  0  0
  1  7  2  0  0  0  0
  2 13  1  0  0  0  0
  2 24  1  0  0  0  0
  3  5  1  0  0  0  0
  3  6  1  0  0  0  0
  3 17  1  0  0  0  0
  4 14  3  0  0  0  0
  5  7  1  0  0  0  0
  5 15  1  0  0  0  0
  5 16  1  0  0  0  0
  6  8  2  0  0  0  0
  6  9  1  0  0  0  0
  7 13  1  0  0  0  0
  8 10  1  0  0  0  0
  8 18  1  0  0  0  0
  9 11  2  0  0  0  0
  9 19  1  0  0  0  0
 10 12  2  0  0  0  0
 10 20  1  0  0  0  0
 11 12  1  0  0  0  0
 11 21  1  0  0  0  0
 12 14  1  0  0  0  0
 13 22  1  0  0  0  0
 13 23  1  0  0  0  0
M  END
> <PUBCHEM_COMPOUND_CID>
582960

> <PUBCHEM_CONFORMER_RMSD>
0.6

> <PUBCHEM_CONFORMER_DIVERSEORDER>
1
27
5
3
28
15
8
29
31
2
30
7
32
4
9
6
23
10
26
11
18
21
22
14
17
12
13
24
25
19
20
16

> <PUBCHEM_MMFF94_PARTIAL_CHARGES>
20
1 -0.57
10 -0.15
11 -0.15
12 0.07
13 0.34
14 0.48
17 0.4
18 0.15
19 0.15
2 -0.68
20 0.15
21 0.15
24 0.4
3 -0.87
4 -0.56
5 0.43
6 0.1
7 0.45
8 -0.15
9 -0.15

> <PUBCHEM_EFFECTIVE_ROTOR_COUNT>
4

> <PUBCHEM_PHARMACOPHORE_FEATURES>
7
1 1 acceptor
1 2 acceptor
1 2 donor
1 3 cation
1 3 donor
1 4 acceptor
6 6 8 9 10 11 12 rings

> <PUBCHEM_HEAVY_ATOM_COUNT>
14

> <PUBCHEM_ATOM_DEF_STEREO_COUNT>
0

> <PUBCHEM_ATOM_UDEF_STEREO_COUNT>
0

> <PUBCHEM_BOND_DEF_STEREO_COUNT>
0

> <PUBCHEM_BOND_UDEF_STEREO_COUNT>
0

> <PUBCHEM_ISOTOPIC_ATOM_COUNT>
0

> <PUBCHEM_COMPONENT_COUNT>
1

> <PUBCHEM_CACTVS_TAUTO_COUNT>
5

> <PUBCHEM_CONFORMER_ID>
0008E53000000001

> <PUBCHEM_MMFF94_ENERGY>
32.5814

> <PUBCHEM_FEATURE_SELFOVERLAP>
35.528

> <PUBCHEM_SHAPE_FINGERPRINT>
10968037 39 18341892978474548766
11401426 45 18408325484684961151
12236239 1 17846498149224763774
13288520 33 18409165528141867701
13533116 47 14129330845462144270
13690532 89 18341894095403370485
13862211 1 18409451367238315983
14123238 8 18334575754635783718
1420 363 18343858918229126419
15048467 5 12175630590082341263
17834072 33 18335985281034182414
17834076 25 11024106546935990658
18186145 218 17274831203251911030
187816 3 16917066663919656169
200 152 18041000656503154137
20279233 1 18040426694459548334
20645477 70 18188769573970484702
21267235 1 18411692197235846858
2297311 6 18187635938637215468
23402539 116 18187370930681006469
23557571 272 18336824285832034300
23559900 14 18338519630015016112
3545911 37 18409448081682870740
42 15 18413106169099372622
4214541 1 18410856598426695332
42788 4 18410856563940038119
4463277 17 18411136940054194881
5104073 3 18409448046658521056
5374978 207 18408610244942635248
69090 78 18260832587623838407

> <PUBCHEM_SHAPE_MULTIPOLES>
266.41
11.32
1.26
0.59
5.85
0.2
0
-1.91
0.11
-0.16
0
-0.04
-0.01
-0.02

> <PUBCHEM_SHAPE_SELFOVERLAP>
545.859

> <PUBCHEM_SHAPE_VOLUME>
151.2

> <PUBCHEM_COORDINATE_TYPE>
2
5
10

$$$$

