17395703
  -OEChem-06241222512D

 35 36  0     0  0  0  0  0  0999 V2000
    2.0000   -2.1307    0.0000 Cl  0  0  0  0  0  0  0  0  0  0  0  0
    5.4641    0.8693    0.0000 S   0  0  0  0  0  0  0  0  0  0  0  0
    3.7320   -5.1307    0.0000 F   0  0  0  0  0  0  0  0  0  0  0  0
    5.4641   -1.1307    0.0000 O   0  0  0  0  0  0  0  0  0  0  0  0
    4.9641    3.4081    0.0000 N   0  0  0  0  0  0  0  0  0  0  0  0
    6.2731    2.4571    0.0000 N   0  0  0  0  0  0  0  0  0  0  0  0
    4.6551    2.4571    0.0000 N   0  0  0  0  0  0  0  0  0  0  0  0
    3.7320   -1.1307    0.0000 N   0  0  0  0  0  0  0  0  0  0  0  0
    6.5519    4.2172    0.0000 C   0  0  0  0  0  0  0  0  0  0  0  0
    5.9641    3.4081    0.0000 C   0  0  0  0  0  0  0  0  0  0  0  0
    7.5464    4.1126    0.0000 C   0  0  0  0  0  0  0  0  0  0  0  0
    6.1452    5.1307    0.0000 C   0  0  0  0  0  0  0  0  0  0  0  0
    5.4641    1.8693    0.0000 C   0  0  0  0  0  0  0  0  0  0  0  0
    4.5981    0.3693    0.0000 C   0  0  0  0  0  0  0  0  0  0  0  0
    3.7320   -2.1307    0.0000 C   0  0  0  0  0  0  0  0  0  0  0  0
    4.5981   -0.6307    0.0000 C   0  0  0  0  0  0  0  0  0  0  0  0
    2.8660   -2.6307    0.0000 C   0  0  0  0  0  0  0  0  0  0  0  0
    4.5981   -2.6307    0.0000 C   0  0  0  0  0  0  0  0  0  0  0  0
    2.8660   -3.6307    0.0000 C   0  0  0  0  0  0  0  0  0  0  0  0
    4.5981   -3.6307    0.0000 C   0  0  0  0  0  0  0  0  0  0  0  0
    3.7320   -4.1307    0.0000 C   0  0  0  0  0  0  0  0  0  0  0  0
    6.9163    4.7188    0.0000 H   0  0  0  0  0  0  0  0  0  0  0  0
    6.7116    5.3829    0.0000 H   0  0  0  0  0  0  0  0  0  0  0  0
    5.8930    5.6971    0.0000 H   0  0  0  0  0  0  0  0  0  0  0  0
    7.4816    3.4960    0.0000 H   0  0  0  0  0  0  0  0  0  0  0  0
    8.1630    4.0478    0.0000 H   0  0  0  0  0  0  0  0  0  0  0  0
    7.6112    4.7292    0.0000 H   0  0  0  0  0  0  0  0  0  0  0  0
    5.5788    4.8785    0.0000 H   0  0  0  0  0  0  0  0  0  0  0  0
    4.5997    3.9097    0.0000 H   0  0  0  0  0  0  0  0  0  0  0  0
    4.3860    0.9519    0.0000 H   0  0  0  0  0  0  0  0  0  0  0  0
    3.9875    0.2616    0.0000 H   0  0  0  0  0  0  0  0  0  0  0  0
    3.1951   -0.8207    0.0000 H   0  0  0  0  0  0  0  0  0  0  0  0
    5.1350   -2.3207    0.0000 H   0  0  0  0  0  0  0  0  0  0  0  0
    2.3291   -3.9407    0.0000 H   0  0  0  0  0  0  0  0  0  0  0  0
    5.1350   -3.9407    0.0000 H   0  0  0  0  0  0  0  0  0  0  0  0
  1 17  1  0  0  0  0
  2 13  1  0  0  0  0
  2 14  1  0  0  0  0
  3 21  1  0  0  0  0
  4 16  2  0  0  0  0
  5  7  1  0  0  0  0
  5 10  1  0  0  0  0
  5 29  1  0  0  0  0
  6 10  2  0  0  0  0
  6 13  1  0  0  0  0
  7 13  2  0  0  0  0
  8 15  1  0  0  0  0
  8 16  1  0  0  0  0
  8 32  1  0  0  0  0
  9 10  1  0  0  0  0
  9 11  1  0  0  0  0
  9 12  1  0  0  0  0
  9 22  1  0  0  0  0
 11 25  1  0  0  0  0
 11 26  1  0  0  0  0
 11 27  1  0  0  0  0
 12 23  1  0  0  0  0
 12 24  1  0  0  0  0
 12 28  1  0  0  0  0
 14 16  1  0  0  0  0
 14 30  1  0  0  0  0
 14 31  1  0  0  0  0
 15 17  2  0  0  0  0
 15 18  1  0  0  0  0
 17 19  1  0  0  0  0
 18 20  2  0  0  0  0
 18 33  1  0  0  0  0
 19 21  2  0  0  0  0
 19 34  1  0  0  0  0
 20 21  1  0  0  0  0
 20 35  1  0  0  0  0
M  END
> <PUBCHEM_COMPOUND_CID>
17395703

> <PUBCHEM_COMPOUND_CANONICALIZED>
1

> <PUBCHEM_CACTVS_COMPLEXITY>
363

> <PUBCHEM_CACTVS_HBOND_ACCEPTOR>
5

> <PUBCHEM_CACTVS_HBOND_DONOR>
2

> <PUBCHEM_CACTVS_ROTATABLE_BOND>
5

> <PUBCHEM_CACTVS_SUBSKEYS>
AAADccBzoQBEAAAAAAAAAAAAAAAAAWAAAAAwAAAAAAAAAAABwAAAHwYYAAAADQqF0yiz0IbrEAiqACdydACS0AvhB7AdqAAwZoiIKCLBm5HEIAhgnALIyAcQAAAAAAAAAAAAABAAAAAAAAAAIAAAAAAAAA==

> <PUBCHEM_IUPAC_OPENEYE_NAME>
N-(2-chloro-4-fluoro-phenyl)-2-[(5-isopropyl-1H-1,2,4-triazol-3-yl)sulfanyl]acetamide

> <PUBCHEM_IUPAC_CAS_NAME>
N-(2-chloro-4-fluorophenyl)-2-[(5-propan-2-yl-1H-1,2,4-triazol-3-yl)thio]acetamide

> <PUBCHEM_IUPAC_NAME>
N-(2-chloro-4-fluorophenyl)-2-[(5-propan-2-yl-1H-1,2,4-triazol-3-yl)sulfanyl]acetamide

> <PUBCHEM_IUPAC_SYSTEMATIC_NAME>
N-(2-chloranyl-4-fluoranyl-phenyl)-2-[(5-propan-2-yl-1H-1,2,4-triazol-3-yl)sulfanyl]ethanamide

> <PUBCHEM_IUPAC_TRADITIONAL_NAME>
N-(2-chloro-4-fluoro-phenyl)-2-[(5-isopropyl-1H-1,2,4-triazol-3-yl)thio]acetamide

> <PUBCHEM_IUPAC_INCHI>
InChI=1S/C13H14ClFN4OS/c1-7(2)12-17-13(19-18-12)21-6-11(20)16-10-4-3-8(15)5-9(10)14/h3-5,7H,6H2,1-2H3,(H,16,20)(H,17,18,19)

> <PUBCHEM_IUPAC_INCHIKEY>
HQJXFUVBKWKDCP-UHFFFAOYSA-N

> <PUBCHEM_XLOGP3_AA>
3.6

> <PUBCHEM_EXACT_MASS>
328.056088

> <PUBCHEM_MOLECULAR_FORMULA>
C13H14ClFN4OS

> <PUBCHEM_MOLECULAR_WEIGHT>
328.792863

> <PUBCHEM_OPENEYE_CAN_SMILES>
CC(C)C1=NC(=NN1)SCC(=O)NC2=C(C=C(C=C2)F)Cl

> <PUBCHEM_OPENEYE_ISO_SMILES>
CC(C)C1=NC(=NN1)SCC(=O)NC2=C(C=C(C=C2)F)Cl

> <PUBCHEM_CACTVS_TPSA>
96

> <PUBCHEM_MONOISOTOPIC_WEIGHT>
328.056088

> <PUBCHEM_TOTAL_CHARGE>
0

> <PUBCHEM_HEAVY_ATOM_COUNT>
21

> <PUBCHEM_ATOM_DEF_STEREO_COUNT>
0

> <PUBCHEM_ATOM_UDEF_STEREO_COUNT>
0

> <PUBCHEM_BOND_DEF_STEREO_COUNT>
0

> <PUBCHEM_BOND_UDEF_STEREO_COUNT>
0

> <PUBCHEM_ISOTOPIC_ATOM_COUNT>
0

> <PUBCHEM_COMPONENT_COUNT>
1

> <PUBCHEM_CACTVS_TAUTO_COUNT>
15

> <PUBCHEM_COORDINATE_TYPE>
1
5
255

> <PUBCHEM_BONDANNOTATIONS>
15  17  8
15  18  8
17  19  8
18  20  8
19  21  8
20  21  8
5  10  8
5  7  8
6  10  8
6  13  8
7  13  8

$$$$

