17395663
  -OEChem-06241222513D

 45 46  0     1  0  0  0  0  0999 V2000
    3.8250   -1.9988    0.5517 O   0  0  0  0  0  0  0  0  0  0  0  0
   -0.8814   -1.5166    1.0861 O   0  0  0  0  0  0  0  0  0  0  0  0
    4.4288    2.7145    0.2042 O   0  0  0  0  0  0  0  0  0  0  0  0
    1.2769   -1.7665   -0.5837 N   0  0  0  0  0  0  0  0  0  0  0  0
   -2.0829   -0.5252   -0.6691 N   0  0  0  0  0  0  0  0  0  0  0  0
   -0.0463   -1.7111   -1.1656 C   0  0  2  0  0  0  0  0  0  0  0  0
    2.0727   -0.6521   -0.3823 C   0  0  0  0  0  0  0  0  0  0  0  0
   -1.0365   -1.2477   -0.1019 C   0  0  0  0  0  0  0  0  0  0  0  0
   -0.4327   -3.0841   -1.6975 C   0  0  0  0  0  0  0  0  0  0  0  0
   -3.1859    0.0628   -0.0054 C   0  0  0  0  0  0  0  0  0  0  0  0
    3.3408   -0.7785    0.1850 C   0  0  0  0  0  0  0  0  0  0  0  0
    1.5965    0.6057   -0.7523 C   0  0  0  0  0  0  0  0  0  0  0  0
   -4.1616    0.7598   -0.7183 C   0  0  0  0  0  0  0  0  0  0  0  0
    4.1327    0.3528    0.3821 C   0  0  0  0  0  0  0  0  0  0  0  0
    2.3881    1.7369   -0.5552 C   0  0  0  0  0  0  0  0  0  0  0  0
    3.6563    1.6106    0.0118 C   0  0  0  0  0  0  0  0  0  0  0  0
   -3.2901   -0.0615    1.3801 C   0  0  0  0  0  0  0  0  0  0  0  0
   -5.2413    1.3322   -0.0458 C   0  0  0  0  0  0  0  0  0  0  0  0
   -4.0759    0.9088   -2.2028 C   0  0  0  0  0  0  0  0  0  0  0  0
   -4.3699    0.5110    2.0526 C   0  0  0  0  0  0  0  0  0  0  0  0
   -5.3453    1.2078    1.3397 C   0  0  0  0  0  0  0  0  0  0  0  0
    3.5521   -2.4301    1.8831 C   0  0  0  0  0  0  0  0  0  0  0  0
    3.8800    3.9690   -0.1965 C   0  0  0  0  0  0  0  0  0  0  0  0
   -0.0595   -1.0400   -2.0324 H   0  0  0  0  0  0  0  0  0  0  0  0
    1.6266   -2.6608   -0.2573 H   0  0  0  0  0  0  0  0  0  0  0  0
   -0.4611   -3.8291   -0.8939 H   0  0  0  0  0  0  0  0  0  0  0  0
    0.2856   -3.4308   -2.4483 H   0  0  0  0  0  0  0  0  0  0  0  0
   -1.4260   -3.0607   -2.1585 H   0  0  0  0  0  0  0  0  0  0  0  0
   -2.0620   -0.4050   -1.6778 H   0  0  0  0  0  0  0  0  0  0  0  0
    0.6184    0.7678   -1.1918 H   0  0  0  0  0  0  0  0  0  0  0  0
    5.1216    0.2558    0.8230 H   0  0  0  0  0  0  0  0  0  0  0  0
    1.9568    2.6832   -0.8636 H   0  0  0  0  0  0  0  0  0  0  0  0
   -2.5807   -0.5812    2.0071 H   0  0  0  0  0  0  0  0  0  0  0  0
   -6.0104    1.8785   -0.5852 H   0  0  0  0  0  0  0  0  0  0  0  0
   -3.1611    1.4409   -2.4842 H   0  0  0  0  0  0  0  0  0  0  0  0
   -4.0945   -0.0718   -2.6900 H   0  0  0  0  0  0  0  0  0  0  0  0
   -4.9189    1.4834   -2.6024 H   0  0  0  0  0  0  0  0  0  0  0  0
   -4.4522    0.4153    3.1315 H   0  0  0  0  0  0  0  0  0  0  0  0
   -6.1858    1.6536    1.8635 H   0  0  0  0  0  0  0  0  0  0  0  0
    4.0375   -1.7660    2.6053 H   0  0  0  0  0  0  0  0  0  0  0  0
    2.4742   -2.4630    2.0706 H   0  0  0  0  0  0  0  0  0  0  0  0
    3.9588   -3.4375    2.0068 H   0  0  0  0  0  0  0  0  0  0  0  0
    3.7019    4.0038   -1.2767 H   0  0  0  0  0  0  0  0  0  0  0  0
    2.9830    4.2186    0.3803 H   0  0  0  0  0  0  0  0  0  0  0  0
    4.6282    4.7359    0.0288 H   0  0  0  0  0  0  0  0  0  0  0  0
  1 11  1  0  0  0  0
  1 22  1  0  0  0  0
  2  8  2  0  0  0  0
  3 16  1  0  0  0  0
  3 23  1  0  0  0  0
  4  6  1  0  0  0  0
  4  7  1  0  0  0  0
  4 25  1  0  0  0  0
  5  8  1  0  0  0  0
  5 10  1  0  0  0  0
  5 29  1  0  0  0  0
  6  8  1  0  0  0  0
  6  9  1  0  0  0  0
  6 24  1  0  0  0  0
  7 11  2  0  0  0  0
  7 12  1  0  0  0  0
  9 26  1  0  0  0  0
  9 27  1  0  0  0  0
  9 28  1  0  0  0  0
 10 13  1  0  0  0  0
 10 17  2  0  0  0  0
 11 14  1  0  0  0  0
 12 15  2  0  0  0  0
 12 30  1  0  0  0  0
 13 18  2  0  0  0  0
 13 19  1  0  0  0  0
 14 16  2  0  0  0  0
 14 31  1  0  0  0  0
 15 16  1  0  0  0  0
 15 32  1  0  0  0  0
 17 20  1  0  0  0  0
 17 33  1  0  0  0  0
 18 21  1  0  0  0  0
 18 34  1  0  0  0  0
 19 35  1  0  0  0  0
 19 36  1  0  0  0  0
 19 37  1  0  0  0  0
 20 21  2  0  0  0  0
 20 38  1  0  0  0  0
 21 39  1  0  0  0  0
 22 40  1  0  0  0  0
 22 41  1  0  0  0  0
 22 42  1  0  0  0  0
 23 43  1  0  0  0  0
 23 44  1  0  0  0  0
 23 45  1  0  0  0  0
M  END
> <PUBCHEM_COMPOUND_CID>
17395663

> <PUBCHEM_CONFORMER_RMSD>
0.8

> <PUBCHEM_CONFORMER_DIVERSEORDER>
1
86
136
160
77
226
83
190
232
96
135
124
189
18
12
48
218
121
103
53
196
119
27
242
146
133
120
3
234
168
240
193
254
5
170
25
231
99
8
230
58
184
14
66
148
243
7
20
176
2
71
166
89
28
154
238
129
257
221
174
191
37
162
214
113
134
233
123
149
241
41
38
59
110
227
155
31
22
108
73
19
80
210
92
246
236
9
46
10
222
106
60
159
171
256
131
29
111
151
177
144
109
248
54
51
229
44
79
75
188
78
152
49
228
17
161
11
198
156
140
173
30
116
219
69
45
104
87
249
138
70
36
179
197
217
235
202
158
52
95
130
192
122
247
35
169
205
145
64
165
220
209
208
245
204
182
244
40
127
42
84
82
211
55
153
91
61
24
13
225
88
112
105
199
180
163
239
115
65
252
164
56
126
142
4
175
172
251
102
57
39
90
43
200
118
185
15
98
216
47
6
97
34
100
74
63
224
203
62
141
72
85
186
223
125
253
76
143
212
26
206
181
157
183
94
114
147
178
93
68
215
187
117
237
250
213
194
16
207
32
21
201
107
150
255
167
128
67
50
137
139
195
101
132
81
33
23

> <PUBCHEM_MMFF94_PARTIAL_CHARGES>
31
1 -0.36
10 0.12
11 0.08
12 -0.15
13 -0.14
14 -0.15
15 -0.15
16 0.08
17 -0.15
18 -0.15
19 0.14
2 -0.57
20 -0.15
21 -0.15
22 0.28
23 0.28
25 0.4
29 0.37
3 -0.36
30 0.15
31 0.15
32 0.15
33 0.15
34 0.15
38 0.15
39 0.15
4 -0.87
5 -0.55
6 0.43
7 0.1
8 0.57

> <PUBCHEM_EFFECTIVE_ROTOR_COUNT>
7

> <PUBCHEM_PHARMACOPHORE_FEATURES>
8
1 1 acceptor
1 2 acceptor
1 3 acceptor
1 4 cation
1 4 donor
1 5 donor
6 10 13 17 18 20 21 rings
6 7 11 12 14 15 16 rings

> <PUBCHEM_HEAVY_ATOM_COUNT>
23

> <PUBCHEM_ATOM_DEF_STEREO_COUNT>
0

> <PUBCHEM_ATOM_UDEF_STEREO_COUNT>
1

> <PUBCHEM_BOND_DEF_STEREO_COUNT>
0

> <PUBCHEM_BOND_UDEF_STEREO_COUNT>
0

> <PUBCHEM_ISOTOPIC_ATOM_COUNT>
0

> <PUBCHEM_COMPONENT_COUNT>
1

> <PUBCHEM_CACTVS_TAUTO_COUNT>
2

> <PUBCHEM_CONFORMER_ID>
01096FCF00000001

> <PUBCHEM_MMFF94_ENERGY>
95.9587

> <PUBCHEM_FEATURE_SELFOVERLAP>
40.594

> <PUBCHEM_SHAPE_FINGERPRINT>
10382601 240 18201728302119322408
11089746 13 17822297847285665056
11545043 162 16845287310742738203
11640471 11 18187365376966701510
12390115 104 17907570338465885156
12549972 3 16268872738070223166
12633257 1 18337393837107803039
12788726 201 17458608047563953545
12892183 10 18060133202656633243
13583140 156 18060140955088699747
13675066 3 17632858646222827415
13878862 14 18270701838375847101
14178342 30 17630042646931792554
14251764 38 18339360897991815225
14251764 75 18191294992590729176
14848178 96 18190183395188648352
15188451 53 15697711498995547113
15342168 16 18187355537396976069
15475509 8 17969487377531704766
20715895 44 18191024719400091609
21033648 144 18341056241767914181
21033648 29 17275111651979520653
21033650 10 15791715413110319347
21864079 5 18187634834540742761
22122407 14 18266450092048117489
22849341 161 18265617757381994186
22950370 63 10879990272549868103
23557571 272 14057012624023736939
23559900 14 17530959211770564262
268830 7 18408884057655634681
4259306 186 9295292728942265937
474 4 18187078503342739295
5104073 3 18343301440000782763
5252454 2 18265613182693405732
6034566 193 18189889821293988877
633830 44 17895462709276852871
636775 72 17182779871503046680
7970288 3 11023830539669874529
960060 61 8862652470150378371

> <PUBCHEM_SHAPE_MULTIPOLES>
445.76
11.79
3.37
1.7
6.84
1.13
-0.15
7.65
-3.32
-5.3
0.48
1.84
-0.6
-1.21

> <PUBCHEM_SHAPE_SELFOVERLAP>
937.146

> <PUBCHEM_SHAPE_VOLUME>
252.4

> <PUBCHEM_COORDINATE_TYPE>
2
5
10

$$$$

