12696
  -OEChem-06261207153D

 29 28  0     0  0  0  0  0  0999 V2000
    0.0239    0.7638    0.7408 P   0  0  0  0  0  0  0  0  0  0  0  0
    0.0007    2.1364    0.1352 O   0  0  0  0  0  0  0  0  0  0  0  0
   -1.3960   -0.1688    0.0366 C   0  0  0  0  0  0  0  0  0  0  0  0
    1.3942   -0.1700    0.0359 C   0  0  0  0  0  0  0  0  0  0  0  0
   -2.7014    0.4059    0.5962 C   0  0  0  0  0  0  0  0  0  0  0  0
   -1.3800   -0.0311   -1.4891 C   0  0  0  0  0  0  0  0  0  0  0  0
   -1.2701   -1.6452    0.4259 C   0  0  0  0  0  0  0  0  0  0  0  0
    1.6859   -1.3826    0.9258 C   0  0  0  0  0  0  0  0  0  0  0  0
    1.0110   -0.6388   -1.3714 C   0  0  0  0  0  0  0  0  0  0  0  0
    2.6317    0.7305   -0.0359 C   0  0  0  0  0  0  0  0  0  0  0  0
    0.0261    0.6638    2.1483 H   0  0  0  0  0  0  0  0  0  0  0  0
   -2.8060    1.4642    0.3332 H   0  0  0  0  0  0  0  0  0  0  0  0
   -3.5807   -0.1281    0.2203 H   0  0  0  0  0  0  0  0  0  0  0  0
   -2.7089    0.3445    1.6901 H   0  0  0  0  0  0  0  0  0  0  0  0
   -0.9162    0.8864   -1.8601 H   0  0  0  0  0  0  0  0  0  0  0  0
   -2.4260    0.1396   -1.7973 H   0  0  0  0  0  0  0  0  0  0  0  0
   -1.1891   -0.9250   -2.0866 H   0  0  0  0  0  0  0  0  0  0  0  0
   -0.9398   -1.7493    1.4646 H   0  0  0  0  0  0  0  0  0  0  0  0
   -2.2672   -2.1065    0.3911 H   0  0  0  0  0  0  0  0  0  0  0  0
   -0.6840   -2.2952   -0.2147 H   0  0  0  0  0  0  0  0  0  0  0  0
    1.1198   -2.2818    0.6911 H   0  0  0  0  0  0  0  0  0  0  0  0
    2.7352   -1.6863    0.8205 H   0  0  0  0  0  0  0  0  0  0  0  0
    1.5299   -1.1439    1.9831 H   0  0  0  0  0  0  0  0  0  0  0  0
    0.8252    0.1683   -2.0811 H   0  0  0  0  0  0  0  0  0  0  0  0
    0.4539   -1.5595   -1.4846 H   0  0  0  0  0  0  0  0  0  0  0  0
    1.9633   -1.0120   -1.7943 H   0  0  0  0  0  0  0  0  0  0  0  0
    2.8814    1.1223    0.9564 H   0  0  0  0  0  0  0  0  0  0  0  0
    3.5058    0.1914   -0.4171 H   0  0  0  0  0  0  0  0  0  0  0  0
    2.4603    1.5906   -0.6920 H   0  0  0  0  0  0  0  0  0  0  0  0
  1  2  2  0  0  0  0
  1  3  1  0  0  0  0
  1  4  1  0  0  0  0
  1 11  1  0  0  0  0
  3  5  1  0  0  0  0
  3  6  1  0  0  0  0
  3  7  1  0  0  0  0
  4  8  1  0  0  0  0
  4  9  1  0  0  0  0
  4 10  1  0  0  0  0
  5 12  1  0  0  0  0
  5 13  1  0  0  0  0
  5 14  1  0  0  0  0
  6 15  1  0  0  0  0
  6 16  1  0  0  0  0
  6 17  1  0  0  0  0
  7 18  1  0  0  0  0
  7 19  1  0  0  0  0
  7 20  1  0  0  0  0
  8 21  1  0  0  0  0
  8 22  1  0  0  0  0
  8 23  1  0  0  0  0
  9 24  1  0  0  0  0
  9 25  1  0  0  0  0
  9 26  1  0  0  0  0
 10 27  1  0  0  0  0
 10 28  1  0  0  0  0
 10 29  1  0  0  0  0
M  END
> <PUBCHEM_COMPOUND_CID>
12696

> <PUBCHEM_CONFORMER_RMSD>
0.4

> <PUBCHEM_CONFORMER_DIVERSEORDER>
1

> <PUBCHEM_MMFF94_PARTIAL_CHARGES>
3
1 0.74
11 -0.04
2 -0.7

> <PUBCHEM_EFFECTIVE_ROTOR_COUNT>
2

> <PUBCHEM_PHARMACOPHORE_FEATURES>
3
1 2 acceptor
4 3 5 6 7 hydrophobe
4 4 8 9 10 hydrophobe

> <PUBCHEM_HEAVY_ATOM_COUNT>
10

> <PUBCHEM_ATOM_DEF_STEREO_COUNT>
0

> <PUBCHEM_ATOM_UDEF_STEREO_COUNT>
0

> <PUBCHEM_BOND_DEF_STEREO_COUNT>
0

> <PUBCHEM_BOND_UDEF_STEREO_COUNT>
0

> <PUBCHEM_ISOTOPIC_ATOM_COUNT>
0

> <PUBCHEM_COMPONENT_COUNT>
1

> <PUBCHEM_CACTVS_TAUTO_COUNT>
2

> <PUBCHEM_CONFORMER_ID>
0000319800000001

> <PUBCHEM_MMFF94_ENERGY>
60.9723

> <PUBCHEM_FEATURE_SELFOVERLAP>
15.223

> <PUBCHEM_SHAPE_FINGERPRINT>
12423570 1 11281509838164963802
12524768 44 18114454647493540541
137420 1 6220651750792276327
15310529 11 16845573144784226178
16945 1 17704077265596610278
18185500 45 18413388730729254570
21922407 69 17701227404503533460
23235685 24 18040994042242962297
23235687 12 16988839445406136478
241688 4 17033575554220634826
24536 1 18186239528240737759
29004967 10 18336540538722249600
369184 2 18343025505542276827
5084963 1 17911527493065435260
528886 8 17821722819372127686

> <PUBCHEM_SHAPE_MULTIPOLES>
203.78
3.19
1.6
1.24
0.04
0.17
0.43
0.12
-0.31
-0.12
-0.33
0.09
-0.2
-0.12

> <PUBCHEM_SHAPE_SELFOVERLAP>
370.813

> <PUBCHEM_SHAPE_VOLUME>
132.2

> <PUBCHEM_COORDINATE_TYPE>
2
5
10

$$$$

