13160
  -OEChem-06261207503D

 22 21  0     1  0  0  0  0  0999 V2000
   -1.3782   -2.5984    0.5357 O   0  0  0  0  0  0  0  0  0  0  0  0
   -2.2201   -1.4450   -1.2252 O   0  0  0  0  0  0  0  0  0  0  0  0
    3.4400    0.0799   -1.2198 O   0  0  0  0  0  0  0  0  0  0  0  0
    3.1659   -0.1381    1.0252 O   0  0  0  0  0  0  0  0  0  0  0  0
   -1.6216    0.9609   -0.1242 N   0  0  0  0  0  0  0  0  0  0  0  0
   -1.4222    2.1380    0.4977 N   0  0  0  0  0  0  0  0  0  0  0  0
    0.3327   -0.2286    0.8551 C   0  0  0  0  0  0  0  0  0  0  0  0
   -1.1867   -0.2208    0.6174 C   0  0  2  0  0  0  0  0  0  0  0  0
    1.2129   -0.1552   -0.3957 C   0  0  0  0  0  0  0  0  0  0  0  0
   -1.6555   -1.4511   -0.1389 C   0  0  0  0  0  0  0  0  0  0  0  0
    2.6892   -0.0691   -0.1004 C   0  0  0  0  0  0  0  0  0  0  0  0
   -1.3564    3.1275   -0.3268 C   0  0  0  0  0  0  0  0  0  0  0  0
    0.6044   -1.1332    1.4154 H   0  0  0  0  0  0  0  0  0  0  0  0
    0.5924    0.6081    1.5178 H   0  0  0  0  0  0  0  0  0  0  0  0
   -1.7080   -0.2348    1.5832 H   0  0  0  0  0  0  0  0  0  0  0  0
    1.0481   -1.0425   -1.0167 H   0  0  0  0  0  0  0  0  0  0  0  0
    0.9587    0.7345   -0.9813 H   0  0  0  0  0  0  0  0  0  0  0  0
   -1.2448    0.9531   -1.0716 H   0  0  0  0  0  0  0  0  0  0  0  0
   -1.6817   -3.3923    0.0461 H   0  0  0  0  0  0  0  0  0  0  0  0
    4.3980    0.1284   -1.0145 H   0  0  0  0  0  0  0  0  0  0  0  0
   -1.1919    4.1437    0.0650 H   0  0  0  0  0  0  0  0  0  0  0  0
   -1.4579    3.0361   -1.4233 H   0  0  0  0  0  0  0  0  0  0  0  0
  1 10  1  0  0  0  0
  1 19  1  0  0  0  0
  2 10  2  0  0  0  0
  3 11  1  0  0  0  0
  3 20  1  0  0  0  0
  4 11  2  0  0  0  0
  5  6  1  0  0  0  0
  5  8  1  0  0  0  0
  5 18  1  0  0  0  0
  6 12  2  0  0  0  0
  7  8  1  0  0  0  0
  7  9  1  0  0  0  0
  7 13  1  0  0  0  0
  7 14  1  0  0  0  0
  8 10  1  0  0  0  0
  8 15  1  0  0  0  0
  9 11  1  0  0  0  0
  9 16  1  0  0  0  0
  9 17  1  0  0  0  0
 12 21  1  0  0  0  0
 12 22  1  0  0  0  0
M  END
> <PUBCHEM_COMPOUND_CID>
13160

> <PUBCHEM_CONFORMER_RMSD>
0.6

> <PUBCHEM_CONFORMER_DIVERSEORDER>
1
145
163
189
87
86
186
177
10
20
90
78
8
111
81
140
42
131
173
92
113
112
130
180
25
174
68
36
157
70
74
162
58
141
26
156
167
45
120
129
109
172
55
91
101
98
110
14
175
9
171
168
143
118
149
136
27
125
108
5
124
85
76
183
63
88
56
128
47
17
179
184
22
164
40
35
32
33
152
24
187
64
30
151
123
138
115
99
79
166
185
12
144
137
53
102
18
116
31
67
2
77
50
178
105
176
97
39
44
6
117
169
34
158
121
181
154
159
94
89
104
49
103
127
13
69
48
182
62
83
146
135
142
7
134
73
72
160
57
82
38
153
46
3
148
75
155
114
84
61
170
43
51
100
41
122
29
150
126
188
28
19
16
52
119
4
133
190
139
15
71
59
21
106
37
66
147
23
93
165
54
95
96
132
107
60
161
80
65
11

> <PUBCHEM_MMFF94_PARTIAL_CHARGES>
16
1 -0.65
10 0.66
11 0.66
12 0.33
18 0.36
19 0.5
2 -0.57
20 0.5
21 0.06
22 0.06
3 -0.65
4 -0.57
5 -0.58
6 -0.5
8 0.33
9 0.06

> <PUBCHEM_EFFECTIVE_ROTOR_COUNT>
6

> <PUBCHEM_PHARMACOPHORE_FEATURES>
8
1 1 acceptor
1 2 acceptor
1 3 acceptor
1 4 acceptor
1 5 donor
1 6 acceptor
3 1 2 10 anion
3 3 4 11 anion

> <PUBCHEM_HEAVY_ATOM_COUNT>
12

> <PUBCHEM_ATOM_DEF_STEREO_COUNT>
0

> <PUBCHEM_ATOM_UDEF_STEREO_COUNT>
1

> <PUBCHEM_BOND_DEF_STEREO_COUNT>
0

> <PUBCHEM_BOND_UDEF_STEREO_COUNT>
0

> <PUBCHEM_ISOTOPIC_ATOM_COUNT>
0

> <PUBCHEM_COMPONENT_COUNT>
1

> <PUBCHEM_CACTVS_TAUTO_COUNT>
1

> <PUBCHEM_CONFORMER_ID>
0000336800000001

> <PUBCHEM_MMFF94_ENERGY>
13.2423

> <PUBCHEM_FEATURE_SELFOVERLAP>
40.712

> <PUBCHEM_SHAPE_FINGERPRINT>
1 1 17546165667582071869
100427 49 18050001095622010465
12138202 97 18189331449627693812
12716758 59 18262519324507638962
12932764 1 18261384572947564386
19837323 101 18338514273900511209
20645477 56 18335975480399120664
20711985 344 18335708234305956027
21524375 3 17908987947675937521
23402539 116 18336563675932580413
23418878 81 17324363394708606541
23557571 272 18260833653166170040
23598294 1 18341606027467186208
2748010 2 18120102679954073777
305870 269 17764593513637278248
81228 2 18408040697703117481

> <PUBCHEM_SHAPE_MULTIPOLES>
213.52
4.31
2.73
1.02
4.9
1.35
-0.09
0.11
-0.73
-3.21
-0.13
0.28
-0.16
-0.25

> <PUBCHEM_SHAPE_SELFOVERLAP>
407.868

> <PUBCHEM_SHAPE_VOLUME>
130.1

> <PUBCHEM_COORDINATE_TYPE>
2
5
10

$$$$

