17395618
  -OEChem-06241222512D

 30 32  0     0  0  0  0  0  0999 V2000
    4.6783   -0.5057    0.0000 S   0  0  0  0  0  0  0  0  0  0  0  0
    2.8660    2.2990    0.0000 F   0  0  0  0  0  0  0  0  0  0  0  0
    7.7619   -2.2990    0.0000 O   0  0  0  0  0  0  0  0  0  0  0  0
    6.7619    1.1651    0.0000 O   0  0  0  0  0  0  0  0  0  0  0  0
    6.7619   -0.5670    0.0000 N   0  0  0  0  0  0  0  0  0  0  0  0
    7.7619   -0.5670    0.0000 C   0  0  0  0  0  0  0  0  0  0  0  0
    6.2619   -1.4330    0.0000 C   0  0  0  0  0  0  0  0  0  0  0  0
    8.2619   -1.4330    0.0000 C   0  0  0  0  0  0  0  0  0  0  0  0
    6.7619   -2.2990    0.0000 C   0  0  0  0  0  0  0  0  0  0  0  0
    6.2619    0.2990    0.0000 C   0  0  0  0  0  0  0  0  0  0  0  0
    5.2619    0.2990    0.0000 C   0  0  0  0  0  0  0  0  0  0  0  0
    3.7320    0.7990    0.0000 C   0  0  0  0  0  0  0  0  0  0  0  0
    4.6783    1.1038    0.0000 C   0  0  0  0  0  0  0  0  0  0  0  0
    3.7320   -0.2010    0.0000 C   0  0  0  0  0  0  0  0  0  0  0  0
    2.8660    1.2990    0.0000 C   0  0  0  0  0  0  0  0  0  0  0  0
    2.8660   -0.7010    0.0000 C   0  0  0  0  0  0  0  0  0  0  0  0
    2.0000    0.7990    0.0000 C   0  0  0  0  0  0  0  0  0  0  0  0
    2.0000   -0.2010    0.0000 C   0  0  0  0  0  0  0  0  0  0  0  0
    8.3445   -0.3549    0.0000 H   0  0  0  0  0  0  0  0  0  0  0  0
    7.6542    0.0436    0.0000 H   0  0  0  0  0  0  0  0  0  0  0  0
    5.7869   -1.0345    0.0000 H   0  0  0  0  0  0  0  0  0  0  0  0
    5.7869   -1.8315    0.0000 H   0  0  0  0  0  0  0  0  0  0  0  0
    8.7368   -1.8315    0.0000 H   0  0  0  0  0  0  0  0  0  0  0  0
    8.7368   -1.0345    0.0000 H   0  0  0  0  0  0  0  0  0  0  0  0
    6.1793   -2.5111    0.0000 H   0  0  0  0  0  0  0  0  0  0  0  0
    6.8695   -2.9096    0.0000 H   0  0  0  0  0  0  0  0  0  0  0  0
    4.8709    1.6931    0.0000 H   0  0  0  0  0  0  0  0  0  0  0  0
    2.8660   -1.3210    0.0000 H   0  0  0  0  0  0  0  0  0  0  0  0
    1.4631    1.1090    0.0000 H   0  0  0  0  0  0  0  0  0  0  0  0
    1.4631   -0.5110    0.0000 H   0  0  0  0  0  0  0  0  0  0  0  0
  1 11  1  0  0  0  0
  1 14  1  0  0  0  0
  2 15  1  0  0  0  0
  3  8  1  0  0  0  0
  3  9  1  0  0  0  0
  4 10  2  0  0  0  0
  5  6  1  0  0  0  0
  5  7  1  0  0  0  0
  5 10  1  0  0  0  0
  6  8  1  0  0  0  0
  6 19  1  0  0  0  0
  6 20  1  0  0  0  0
  7  9  1  0  0  0  0
  7 21  1  0  0  0  0
  7 22  1  0  0  0  0
  8 23  1  0  0  0  0
  8 24  1  0  0  0  0
  9 25  1  0  0  0  0
  9 26  1  0  0  0  0
 10 11  1  0  0  0  0
 11 13  2  0  0  0  0
 12 13  1  0  0  0  0
 12 14  1  0  0  0  0
 12 15  2  0  0  0  0
 13 27  1  0  0  0  0
 14 16  2  0  0  0  0
 15 17  1  0  0  0  0
 16 18  1  0  0  0  0
 16 28  1  0  0  0  0
 17 18  2  0  0  0  0
 17 29  1  0  0  0  0
 18 30  1  0  0  0  0
M  END
> <PUBCHEM_COMPOUND_CID>
17395618

> <PUBCHEM_COMPOUND_CANONICALIZED>
1

> <PUBCHEM_CACTVS_COMPLEXITY>
322

> <PUBCHEM_CACTVS_HBOND_ACCEPTOR>
4

> <PUBCHEM_CACTVS_HBOND_DONOR>
0

> <PUBCHEM_CACTVS_ROTATABLE_BOND>
1

> <PUBCHEM_CACTVS_SUBSKEYS>
AAADccByMQBAAAAAAAAAAAAAAAAAASAAAAA8QAAAAAAAAEgB8AAAHwQAAAAADADh2A4wAcMABAiMAiFSEACDAIAkCBBIiBkIBMgKIDKglRGHIQhghgC4iYcYiICOAAAAAAAEAAAAAAAAAAgAAAAAAAAAAA==

> <PUBCHEM_IUPAC_OPENEYE_NAME>
(4-fluorobenzothiophen-2-yl)-morpholino-methanone

> <PUBCHEM_IUPAC_CAS_NAME>
(4-fluoro-1-benzothiophen-2-yl)-(4-morpholinyl)methanone

> <PUBCHEM_IUPAC_NAME>
(4-fluoro-1-benzothiophen-2-yl)-morpholin-4-ylmethanone

> <PUBCHEM_IUPAC_SYSTEMATIC_NAME>
(4-fluoranyl-1-benzothiophen-2-yl)-morpholin-4-yl-methanone

> <PUBCHEM_IUPAC_TRADITIONAL_NAME>
(4-fluorobenzothiophen-2-yl)-morpholino-methanone

> <PUBCHEM_IUPAC_INCHI>
InChI=1S/C13H12FNO2S/c14-10-2-1-3-11-9(10)8-12(18-11)13(16)15-4-6-17-7-5-15/h1-3,8H,4-7H2

> <PUBCHEM_IUPAC_INCHIKEY>
BLCUWVBYZREDCB-UHFFFAOYSA-N

> <PUBCHEM_XLOGP3_AA>
2.5

> <PUBCHEM_EXACT_MASS>
265.057278

> <PUBCHEM_MOLECULAR_FORMULA>
C13H12FNO2S

> <PUBCHEM_MOLECULAR_WEIGHT>
265.303283

> <PUBCHEM_OPENEYE_CAN_SMILES>
C1COCCN1C(=O)C2=CC3=C(C=CC=C3S2)F

> <PUBCHEM_OPENEYE_ISO_SMILES>
C1COCCN1C(=O)C2=CC3=C(C=CC=C3S2)F

> <PUBCHEM_CACTVS_TPSA>
57.8

> <PUBCHEM_MONOISOTOPIC_WEIGHT>
265.057278

> <PUBCHEM_TOTAL_CHARGE>
0

> <PUBCHEM_HEAVY_ATOM_COUNT>
18

> <PUBCHEM_ATOM_DEF_STEREO_COUNT>
0

> <PUBCHEM_ATOM_UDEF_STEREO_COUNT>
0

> <PUBCHEM_BOND_DEF_STEREO_COUNT>
0

> <PUBCHEM_BOND_UDEF_STEREO_COUNT>
0

> <PUBCHEM_ISOTOPIC_ATOM_COUNT>
0

> <PUBCHEM_COMPONENT_COUNT>
1

> <PUBCHEM_CACTVS_TAUTO_COUNT>
1

> <PUBCHEM_COORDINATE_TYPE>
1
5
255

> <PUBCHEM_BONDANNOTATIONS>
1  11  8
1  14  8
11  13  8
12  13  8
12  14  8
12  15  8
14  16  8
15  17  8
16  18  8
17  18  8

$$$$

