3787
  -OEChem-06251223412D

 29 29  0     1  0  0  0  0  0999 V2000
    5.4641    0.9400    0.0000 O   0  0  0  0  0  0  0  0  0  0  0  0
    5.4641    2.9400    0.0000 O   0  0  0  0  0  0  0  0  0  0  0  0
    4.5981    2.4400    0.0000 N   0  0  0  0  0  0  0  0  0  0  0  0
    3.7320   -0.0600    0.0000 C   0  0  0  0  0  0  0  0  0  0  0  0
    3.7320    0.9400    0.0000 C   0  0  3  0  0  0  0  0  0  0  0  0
    2.8660   -0.5600    0.0000 C   0  0  0  0  0  0  0  0  0  0  0  0
    2.8660   -1.5600    0.0000 C   0  0  0  0  0  0  0  0  0  0  0  0
    2.8660    1.4400    0.0000 C   0  0  0  0  0  0  0  0  0  0  0  0
    4.5981    1.4400    0.0000 C   0  0  0  0  0  0  0  0  0  0  0  0
    2.0000   -2.0600    0.0000 C   0  0  0  0  0  0  0  0  0  0  0  0
    3.7320   -2.0600    0.0000 C   0  0  0  0  0  0  0  0  0  0  0  0
    2.0000   -3.0600    0.0000 C   0  0  0  0  0  0  0  0  0  0  0  0
    3.7320   -3.0600    0.0000 C   0  0  0  0  0  0  0  0  0  0  0  0
    2.8660   -3.5600    0.0000 C   0  0  0  0  0  0  0  0  0  0  0  0
    3.9441   -0.6426    0.0000 H   0  0  0  0  0  0  0  0  0  0  0  0
    4.3426    0.0477    0.0000 H   0  0  0  0  0  0  0  0  0  0  0  0
    3.1951    0.6300    0.0000 H   0  0  0  0  0  0  0  0  0  0  0  0
    2.6540    0.0226    0.0000 H   0  0  0  0  0  0  0  0  0  0  0  0
    2.2554   -0.6677    0.0000 H   0  0  0  0  0  0  0  0  0  0  0  0
    3.1760    1.9769    0.0000 H   0  0  0  0  0  0  0  0  0  0  0  0
    2.3291    1.7500    0.0000 H   0  0  0  0  0  0  0  0  0  0  0  0
    2.5560    0.9031    0.0000 H   0  0  0  0  0  0  0  0  0  0  0  0
    1.4631   -1.7500    0.0000 H   0  0  0  0  0  0  0  0  0  0  0  0
    4.2690   -1.7500    0.0000 H   0  0  0  0  0  0  0  0  0  0  0  0
    1.4631   -3.3700    0.0000 H   0  0  0  0  0  0  0  0  0  0  0  0
    4.2690   -3.3700    0.0000 H   0  0  0  0  0  0  0  0  0  0  0  0
    4.0611    2.7500    0.0000 H   0  0  0  0  0  0  0  0  0  0  0  0
    2.8660   -4.1800    0.0000 H   0  0  0  0  0  0  0  0  0  0  0  0
    5.4641    3.5600    0.0000 H   0  0  0  0  0  0  0  0  0  0  0  0
  1  9  2  0  0  0  0
  2  3  1  0  0  0  0
  2 29  1  0  0  0  0
  3  9  1  0  0  0  0
  3 27  1  0  0  0  0
  4  5  1  0  0  0  0
  4  6  1  0  0  0  0
  4 15  1  0  0  0  0
  4 16  1  0  0  0  0
  5  8  1  0  0  0  0
  5  9  1  0  0  0  0
  5 17  1  0  0  0  0
  6  7  1  0  0  0  0
  6 18  1  0  0  0  0
  6 19  1  0  0  0  0
  7 10  2  0  0  0  0
  7 11  1  0  0  0  0
  8 20  1  0  0  0  0
  8 21  1  0  0  0  0
  8 22  1  0  0  0  0
 10 12  1  0  0  0  0
 10 23  1  0  0  0  0
 11 13  2  0  0  0  0
 11 24  1  0  0  0  0
 12 14  2  0  0  0  0
 12 25  1  0  0  0  0
 13 14  1  0  0  0  0
 13 26  1  0  0  0  0
 14 28  1  0  0  0  0
M  END
> <PUBCHEM_COMPOUND_CID>
3787

> <PUBCHEM_COMPOUND_CANONICALIZED>
1

> <PUBCHEM_CACTVS_COMPLEXITY>
176

> <PUBCHEM_CACTVS_HBOND_ACCEPTOR>
2

> <PUBCHEM_CACTVS_HBOND_DONOR>
2

> <PUBCHEM_CACTVS_ROTATABLE_BOND>
4

> <PUBCHEM_CACTVS_SUBSKEYS>
AAADccByMAAAAAAAAAAAAAAAAAAAAAAAAAAwAAAAAAAAAAABAAAAHgAUCAAADQCBmAAyAIBQAACIAiFSEAACAAAgAAAoiAEAAIgIIDKAkRCAIAAgkAAIiAcYiMCOAAAAAAAAAAAAAAAAAAAAAAAAAAAAAA==

> <PUBCHEM_IUPAC_OPENEYE_NAME>
2-methyl-4-phenyl-butanehydroxamic acid

> <PUBCHEM_IUPAC_CAS_NAME>
N-hydroxy-2-methyl-4-phenylbutanamide

> <PUBCHEM_IUPAC_NAME>
N-hydroxy-2-methyl-4-phenylbutanamide

> <PUBCHEM_IUPAC_SYSTEMATIC_NAME>
2-methyl-N-oxidanyl-4-phenyl-butanamide

> <PUBCHEM_IUPAC_TRADITIONAL_NAME>
2-methyl-4-phenyl-butanehydroxamic acid

> <PUBCHEM_IUPAC_INCHI>
InChI=1S/C11H15NO2/c1-9(11(13)12-14)7-8-10-5-3-2-4-6-10/h2-6,9,14H,7-8H2,1H3,(H,12,13)

> <PUBCHEM_IUPAC_INCHIKEY>
SUNMLPVOEXPESO-UHFFFAOYSA-N

> <PUBCHEM_XLOGP3_AA>
1.9

> <PUBCHEM_EXACT_MASS>
193.110279

> <PUBCHEM_MOLECULAR_FORMULA>
C11H15NO2

> <PUBCHEM_MOLECULAR_WEIGHT>
193.2423

> <PUBCHEM_OPENEYE_CAN_SMILES>
CC(CCC1=CC=CC=C1)C(=O)NO

> <PUBCHEM_OPENEYE_ISO_SMILES>
CC(CCC1=CC=CC=C1)C(=O)NO

> <PUBCHEM_CACTVS_TPSA>
49.3

> <PUBCHEM_MONOISOTOPIC_WEIGHT>
193.110279

> <PUBCHEM_TOTAL_CHARGE>
0

> <PUBCHEM_HEAVY_ATOM_COUNT>
14

> <PUBCHEM_ATOM_DEF_STEREO_COUNT>
0

> <PUBCHEM_ATOM_UDEF_STEREO_COUNT>
1

> <PUBCHEM_BOND_DEF_STEREO_COUNT>
0

> <PUBCHEM_BOND_UDEF_STEREO_COUNT>
0

> <PUBCHEM_ISOTOPIC_ATOM_COUNT>
0

> <PUBCHEM_COMPONENT_COUNT>
1

> <PUBCHEM_CACTVS_TAUTO_COUNT>
4

> <PUBCHEM_COORDINATE_TYPE>
1
5
255

> <PUBCHEM_BONDANNOTATIONS>
10  12  8
11  13  8
12  14  8
13  14  8
5  8  3
7  10  8
7  11  8

$$$$

