10226
  -OEChem-06261204232D

 27 28  0     0  0  0  0  0  0999 V2000
    8.1282   -1.1192    0.0000 S   0  0  0  0  0  0  0  0  0  0  0  0
    4.5981   -2.0950    0.0000 O   0  0  0  0  0  0  0  0  0  0  0  0
    8.9923   -1.6225    0.0000 O   0  0  0  0  0  0  0  0  0  0  0  0
    8.6315   -0.2551    0.0000 O   0  0  0  0  0  0  0  0  0  0  0  0
    7.6249   -1.9832    0.0000 O   0  0  0  0  0  0  0  0  0  0  0  0
    3.7320    2.4050    0.0000 O   0  5  0  0  0  0  0  0  0  0  0  0
    5.4641    2.4050    0.0000 O   0  0  0  0  0  0  0  0  0  0  0  0
    2.0000   -0.5950    0.0000 O   0  5  0  0  0  0  0  0  0  0  0  0
    2.8660   -2.0950    0.0000 O   0  0  0  0  0  0  0  0  0  0  0  0
    4.5981    1.9050    0.0000 N   0  3  0  0  0  0  0  0  0  0  0  0
    2.8660   -1.0950    0.0000 N   0  3  0  0  0  0  0  0  0  0  0  0
    5.4641   -0.5950    0.0000 C   0  0  0  0  0  0  0  0  0  0  0  0
    5.4641    0.4050    0.0000 C   0  0  0  0  0  0  0  0  0  0  0  0
    6.3580   -1.1297    0.0000 C   0  0  0  0  0  0  0  0  0  0  0  0
    7.2641   -0.6158    0.0000 C   0  0  0  0  0  0  0  0  0  0  0  0
    4.5981    0.9050    0.0000 C   0  0  0  0  0  0  0  0  0  0  0  0
    4.5981   -1.0950    0.0000 C   0  0  0  0  0  0  0  0  0  0  0  0
    6.3580    0.9397    0.0000 C   0  0  0  0  0  0  0  0  0  0  0  0
    3.7320   -0.5950    0.0000 C   0  0  0  0  0  0  0  0  0  0  0  0
    7.2641    0.4258    0.0000 C   0  0  0  0  0  0  0  0  0  0  0  0
    3.7320    0.4050    0.0000 C   0  0  0  0  0  0  0  0  0  0  0  0
    6.3509   -1.7496    0.0000 H   0  0  0  0  0  0  0  0  0  0  0  0
    6.3509    1.5596    0.0000 H   0  0  0  0  0  0  0  0  0  0  0  0
    7.7998    0.7379    0.0000 H   0  0  0  0  0  0  0  0  0  0  0  0
    3.1951    0.7150    0.0000 H   0  0  0  0  0  0  0  0  0  0  0  0
    5.1350   -2.4050    0.0000 H   0  0  0  0  0  0  0  0  0  0  0  0
    9.5304   -1.3146    0.0000 H   0  0  0  0  0  0  0  0  0  0  0  0
  1  3  1  0  0  0  0
  1  4  2  0  0  0  0
  1  5  2  0  0  0  0
  1 15  1  0  0  0  0
  2 17  1  0  0  0  0
  2 26  1  0  0  0  0
  3 27  1  0  0  0  0
  6 10  1  0  0  0  0
  7 10  2  0  0  0  0
  8 11  1  0  0  0  0
  9 11  2  0  0  0  0
 10 16  1  0  0  0  0
 11 19  1  0  0  0  0
 12 13  2  0  0  0  0
 12 14  1  0  0  0  0
 12 17  1  0  0  0  0
 13 16  1  0  0  0  0
 13 18  1  0  0  0  0
 14 15  2  0  0  0  0
 14 22  1  0  0  0  0
 15 20  1  0  0  0  0
 16 21  2  0  0  0  0
 17 19  2  0  0  0  0
 18 20  2  0  0  0  0
 18 23  1  0  0  0  0
 19 21  1  0  0  0  0
 20 24  1  0  0  0  0
 21 25  1  0  0  0  0
M  CHG  4   6  -1   8  -1  10   1  11   1
M  END
> <PUBCHEM_COMPOUND_CID>
10226

> <PUBCHEM_COMPOUND_CANONICALIZED>
1

> <PUBCHEM_CACTVS_COMPLEXITY>
533

> <PUBCHEM_CACTVS_HBOND_ACCEPTOR>
8

> <PUBCHEM_CACTVS_HBOND_DONOR>
2

> <PUBCHEM_CACTVS_ROTATABLE_BOND>
1

> <PUBCHEM_CACTVS_SUBSKEYS>
AAADcYBzPABAAAAAAAAAAAAAAAAAAAAAAAAwYAAAAAAAAADBUAAAHgQECAAADAyB2AAwx8AQQoKBAiRCQ3DCAEAgIgAoiBgFbIoKJiKS0dOAcABkwFEI2AewwLAOmEABwAQaEAAwgAOACDQgAAAAAAAAAA==

> <PUBCHEM_IUPAC_OPENEYE_NAME>
8-hydroxy-5,7-dinitro-naphthalene-2-sulfonic acid

> <PUBCHEM_IUPAC_CAS_NAME>
8-hydroxy-5,7-dinitro-2-naphthalenesulfonic acid

> <PUBCHEM_IUPAC_NAME>
8-hydroxy-5,7-dinitronaphthalene-2-sulfonic acid

> <PUBCHEM_IUPAC_SYSTEMATIC_NAME>
5,7-dinitro-8-oxidanyl-naphthalene-2-sulfonic acid

> <PUBCHEM_IUPAC_TRADITIONAL_NAME>
8-hydroxy-5,7-dinitro-naphthalene-2-sulfonic acid

> <PUBCHEM_IUPAC_INCHI>
InChI=1S/C10H6N2O8S/c13-10-7-3-5(21(18,19)20)1-2-6(7)8(11(14)15)4-9(10)12(16)17/h1-4,13H,(H,18,19,20)

> <PUBCHEM_IUPAC_INCHIKEY>
FCQJEPASRCXVCB-UHFFFAOYSA-N

> <PUBCHEM_XLOGP3_AA>
1.8

> <PUBCHEM_EXACT_MASS>
313.984486

> <PUBCHEM_MOLECULAR_FORMULA>
C10H6N2O8S

> <PUBCHEM_MOLECULAR_WEIGHT>
314.22824

> <PUBCHEM_OPENEYE_CAN_SMILES>
C1=CC2=C(C=C1S(=O)(=O)O)C(=C(C=C2[N+](=O)[O-])[N+](=O)[O-])O

> <PUBCHEM_OPENEYE_ISO_SMILES>
C1=CC2=C(C=C1S(=O)(=O)O)C(=C(C=C2[N+](=O)[O-])[N+](=O)[O-])O

> <PUBCHEM_CACTVS_TPSA>
175

> <PUBCHEM_MONOISOTOPIC_WEIGHT>
313.984486

> <PUBCHEM_TOTAL_CHARGE>
0

> <PUBCHEM_HEAVY_ATOM_COUNT>
21

> <PUBCHEM_ATOM_DEF_STEREO_COUNT>
0

> <PUBCHEM_ATOM_UDEF_STEREO_COUNT>
0

> <PUBCHEM_BOND_DEF_STEREO_COUNT>
0

> <PUBCHEM_BOND_UDEF_STEREO_COUNT>
0

> <PUBCHEM_ISOTOPIC_ATOM_COUNT>
0

> <PUBCHEM_COMPONENT_COUNT>
1

> <PUBCHEM_CACTVS_TAUTO_COUNT>
3

> <PUBCHEM_COORDINATE_TYPE>
1
5
255

> <PUBCHEM_BONDANNOTATIONS>
12  13  8
12  14  8
12  17  8
13  16  8
13  18  8
14  15  8
15  20  8
16  21  8
17  19  8
18  20  8
19  21  8

$$$$

