5346
  -OEChem-06261200392D

138138  0     1  0  0  0  0  0999 V2000
   23.6506   -4.5950    0.0000 S   0  0  0  0  0  0  0  0  0  0  0  0
   21.9186   -5.5950    0.0000 O   0  0  0  0  0  0  0  0  0  0  0  0
   20.1865   -5.5950    0.0000 O   0  0  0  0  0  0  0  0  0  0  0  0
   23.6506   -7.5950    0.0000 O   0  0  0  0  0  0  0  0  0  0  0  0
   21.9186   -8.5950    0.0000 O   0  0  0  0  0  0  0  0  0  0  0  0
   20.1865   -7.5950    0.0000 O   0  0  0  0  0  0  0  0  0  0  0  0
   23.6506   -3.5950    0.0000 O   0  0  0  0  0  0  0  0  0  0  0  0
   24.6506   -4.5950    0.0000 O   0  0  0  0  0  0  0  0  0  0  0  0
   22.6506   -4.5950    0.0000 O   0  0  0  0  0  0  0  0  0  0  0  0
   19.3205   -3.0950    0.0000 O   0  0  0  0  0  0  0  0  0  0  0  0
   17.5885   -4.0950    0.0000 O   0  0  0  0  0  0  0  0  0  0  0  0
   17.5885   -3.0950    0.0000 O   0  0  0  0  0  0  0  0  0  0  0  0
   16.7224   -5.5950    0.0000 O   0  0  0  0  0  0  0  0  0  0  0  0
   22.7846   -7.0950    0.0000 C   0  0  3  0  0  0  0  0  0  0  0  0
   22.7846   -6.0950    0.0000 C   0  0  3  0  0  0  0  0  0  0  0  0
   21.9186   -7.5950    0.0000 C   0  0  3  0  0  0  0  0  0  0  0  0
   21.0526   -7.0950    0.0000 C   0  0  3  0  0  0  0  0  0  0  0  0
   21.0526   -6.0950    0.0000 C   0  0  3  0  0  0  0  0  0  0  0  0
   23.6506   -5.5950    0.0000 C   0  0  0  0  0  0  0  0  0  0  0  0
   20.1865   -4.5950    0.0000 C   0  0  0  0  0  0  0  0  0  0  0  0
   19.3205   -4.0950    0.0000 C   0  0  3  0  0  0  0  0  0  0  0  0
   18.4545   -4.5950    0.0000 C   0  0  0  0  0  0  0  0  0  0  0  0
    9.7942   -4.5950    0.0000 C   0  0  0  0  0  0  0  0  0  0  0  0
    8.9282   -4.0950    0.0000 C   0  0  0  0  0  0  0  0  0  0  0  0
   10.6603   -4.0950    0.0000 C   0  0  0  0  0  0  0  0  0  0  0  0
   11.5263   -4.5950    0.0000 C   0  0  0  0  0  0  0  0  0  0  0  0
    8.0622   -4.5950    0.0000 C   0  0  0  0  0  0  0  0  0  0  0  0
   12.3923   -4.0950    0.0000 C   0  0  0  0  0  0  0  0  0  0  0  0
   15.8564    1.9050    0.0000 C   0  0  0  0  0  0  0  0  0  0  0  0
    7.1962   -4.0950    0.0000 C   0  0  0  0  0  0  0  0  0  0  0  0
   15.8564    2.9050    0.0000 C   0  0  0  0  0  0  0  0  0  0  0  0
   16.7224    1.4050    0.0000 C   0  0  0  0  0  0  0  0  0  0  0  0
   14.9904    3.4050    0.0000 C   0  0  0  0  0  0  0  0  0  0  0  0
   16.7224    0.4050    0.0000 C   0  0  0  0  0  0  0  0  0  0  0  0
   13.2583   -4.5950    0.0000 C   0  0  0  0  0  0  0  0  0  0  0  0
   14.9904    4.4050    0.0000 C   0  0  0  0  0  0  0  0  0  0  0  0
    6.3301   -4.5950    0.0000 C   0  0  0  0  0  0  0  0  0  0  0  0
   17.5885   -0.0950    0.0000 C   0  0  0  0  0  0  0  0  0  0  0  0
   14.1244    4.9050    0.0000 C   0  0  0  0  0  0  0  0  0  0  0  0
   14.1244   -4.0950    0.0000 C   0  0  0  0  0  0  0  0  0  0  0  0
   17.5885   -1.0950    0.0000 C   0  0  0  0  0  0  0  0  0  0  0  0
    5.4641   -4.0950    0.0000 C   0  0  0  0  0  0  0  0  0  0  0  0
   18.4545   -1.5950    0.0000 C   0  0  0  0  0  0  0  0  0  0  0  0
   14.1244    5.9050    0.0000 C   0  0  0  0  0  0  0  0  0  0  0  0
   14.9904   -4.5950    0.0000 C   0  0  0  0  0  0  0  0  0  0  0  0
   18.4545   -2.5950    0.0000 C   0  0  0  0  0  0  0  0  0  0  0  0
    4.5981   -4.5950    0.0000 C   0  0  0  0  0  0  0  0  0  0  0  0
   13.2583    6.4050    0.0000 C   0  0  0  0  0  0  0  0  0  0  0  0
   15.8564   -4.0950    0.0000 C   0  0  0  0  0  0  0  0  0  0  0  0
    3.7320   -4.0950    0.0000 C   0  0  0  0  0  0  0  0  0  0  0  0
   16.7224   -4.5950    0.0000 C   0  0  0  0  0  0  0  0  0  0  0  0
   13.2583    7.4050    0.0000 C   0  0  0  0  0  0  0  0  0  0  0  0
    2.8660   -4.5950    0.0000 C   0  0  0  0  0  0  0  0  0  0  0  0
   12.3923    7.9050    0.0000 C   0  0  0  0  0  0  0  0  0  0  0  0
    2.0000   -4.0950    0.0000 C   0  0  0  0  0  0  0  0  0  0  0  0
   12.3923    8.9050    0.0000 C   0  0  0  0  0  0  0  0  0  0  0  0
   23.3215   -6.7850    0.0000 H   0  0  0  0  0  0  0  0  0  0  0  0
   22.7846   -5.4750    0.0000 H   0  0  0  0  0  0  0  0  0  0  0  0
   22.4555   -7.9050    0.0000 H   0  0  0  0  0  0  0  0  0  0  0  0
   21.0526   -7.7150    0.0000 H   0  0  0  0  0  0  0  0  0  0  0  0
   21.0526   -5.4750    0.0000 H   0  0  0  0  0  0  0  0  0  0  0  0
   23.8627   -6.1776    0.0000 H   0  0  0  0  0  0  0  0  0  0  0  0
   24.2612   -5.4873    0.0000 H   0  0  0  0  0  0  0  0  0  0  0  0
   23.6506   -8.2150    0.0000 H   0  0  0  0  0  0  0  0  0  0  0  0
   21.3816   -8.9050    0.0000 H   0  0  0  0  0  0  0  0  0  0  0  0
   19.6496   -7.2850    0.0000 H   0  0  0  0  0  0  0  0  0  0  0  0
   20.7971   -4.7027    0.0000 H   0  0  0  0  0  0  0  0  0  0  0  0
   20.3986   -4.0124    0.0000 H   0  0  0  0  0  0  0  0  0  0  0  0
   19.8574   -3.7850    0.0000 H   0  0  0  0  0  0  0  0  0  0  0  0
   18.0560   -5.0700    0.0000 H   0  0  0  0  0  0  0  0  0  0  0  0
   18.8530   -5.0700    0.0000 H   0  0  0  0  0  0  0  0  0  0  0  0
    9.3957   -5.0700    0.0000 H   0  0  0  0  0  0  0  0  0  0  0  0
   10.1928   -5.0700    0.0000 H   0  0  0  0  0  0  0  0  0  0  0  0
    9.3267   -3.6200    0.0000 H   0  0  0  0  0  0  0  0  0  0  0  0
    8.5297   -3.6200    0.0000 H   0  0  0  0  0  0  0  0  0  0  0  0
   11.0588   -3.6200    0.0000 H   0  0  0  0  0  0  0  0  0  0  0  0
   10.2617   -3.6200    0.0000 H   0  0  0  0  0  0  0  0  0  0  0  0
   24.1876   -3.2850    0.0000 H   0  0  0  0  0  0  0  0  0  0  0  0
    7.6636   -5.0700    0.0000 H   0  0  0  0  0  0  0  0  0  0  0  0
    8.4607   -5.0700    0.0000 H   0  0  0  0  0  0  0  0  0  0  0  0
   11.1278   -5.0700    0.0000 H   0  0  0  0  0  0  0  0  0  0  0  0
   11.9248   -5.0700    0.0000 H   0  0  0  0  0  0  0  0  0  0  0  0
   12.7908   -3.6200    0.0000 H   0  0  0  0  0  0  0  0  0  0  0  0
   11.9938   -3.6200    0.0000 H   0  0  0  0  0  0  0  0  0  0  0  0
   15.2458    2.0127    0.0000 H   0  0  0  0  0  0  0  0  0  0  0  0
   15.6444    1.3224    0.0000 H   0  0  0  0  0  0  0  0  0  0  0  0
    7.5947   -3.6200    0.0000 H   0  0  0  0  0  0  0  0  0  0  0  0
    6.7976   -3.6200    0.0000 H   0  0  0  0  0  0  0  0  0  0  0  0
   16.4670    2.7973    0.0000 H   0  0  0  0  0  0  0  0  0  0  0  0
   16.0685    3.4876    0.0000 H   0  0  0  0  0  0  0  0  0  0  0  0
   17.3330    1.2973    0.0000 H   0  0  0  0  0  0  0  0  0  0  0  0
   16.9345    1.9876    0.0000 H   0  0  0  0  0  0  0  0  0  0  0  0
   14.3798    3.5127    0.0000 H   0  0  0  0  0  0  0  0  0  0  0  0
   14.7783    2.8224    0.0000 H   0  0  0  0  0  0  0  0  0  0  0  0
   16.1119    0.5127    0.0000 H   0  0  0  0  0  0  0  0  0  0  0  0
   16.5104   -0.1776    0.0000 H   0  0  0  0  0  0  0  0  0  0  0  0
   12.8598   -5.0700    0.0000 H   0  0  0  0  0  0  0  0  0  0  0  0
   13.6569   -5.0700    0.0000 H   0  0  0  0  0  0  0  0  0  0  0  0
   15.6010    4.2973    0.0000 H   0  0  0  0  0  0  0  0  0  0  0  0
   15.2024    4.9876    0.0000 H   0  0  0  0  0  0  0  0  0  0  0  0
    5.9316   -5.0700    0.0000 H   0  0  0  0  0  0  0  0  0  0  0  0
    6.7287   -5.0700    0.0000 H   0  0  0  0  0  0  0  0  0  0  0  0
   18.1990   -0.2027    0.0000 H   0  0  0  0  0  0  0  0  0  0  0  0
   17.8005    0.4876    0.0000 H   0  0  0  0  0  0  0  0  0  0  0  0
   13.5138    5.0127    0.0000 H   0  0  0  0  0  0  0  0  0  0  0  0
   13.9123    4.3224    0.0000 H   0  0  0  0  0  0  0  0  0  0  0  0
   14.5229   -3.6200    0.0000 H   0  0  0  0  0  0  0  0  0  0  0  0
   13.7258   -3.6200    0.0000 H   0  0  0  0  0  0  0  0  0  0  0  0
   16.9779   -0.9873    0.0000 H   0  0  0  0  0  0  0  0  0  0  0  0
   17.3764   -1.6776    0.0000 H   0  0  0  0  0  0  0  0  0  0  0  0
    5.8626   -3.6200    0.0000 H   0  0  0  0  0  0  0  0  0  0  0  0
    5.0656   -3.6200    0.0000 H   0  0  0  0  0  0  0  0  0  0  0  0
   14.7349    5.7973    0.0000 H   0  0  0  0  0  0  0  0  0  0  0  0
   14.3364    6.4876    0.0000 H   0  0  0  0  0  0  0  0  0  0  0  0
   19.0651   -1.7027    0.0000 H   0  0  0  0  0  0  0  0  0  0  0  0
   18.6665   -1.0124    0.0000 H   0  0  0  0  0  0  0  0  0  0  0  0
   14.5919   -5.0700    0.0000 H   0  0  0  0  0  0  0  0  0  0  0  0
   15.3889   -5.0700    0.0000 H   0  0  0  0  0  0  0  0  0  0  0  0
    4.1996   -5.0700    0.0000 H   0  0  0  0  0  0  0  0  0  0  0  0
    4.9966   -5.0700    0.0000 H   0  0  0  0  0  0  0  0  0  0  0  0
   12.6477    6.5127    0.0000 H   0  0  0  0  0  0  0  0  0  0  0  0
   13.0463    5.8224    0.0000 H   0  0  0  0  0  0  0  0  0  0  0  0
   16.2549   -3.6200    0.0000 H   0  0  0  0  0  0  0  0  0  0  0  0
   15.4579   -3.6200    0.0000 H   0  0  0  0  0  0  0  0  0  0  0  0
    4.1306   -3.6200    0.0000 H   0  0  0  0  0  0  0  0  0  0  0  0
    3.3335   -3.6200    0.0000 H   0  0  0  0  0  0  0  0  0  0  0  0
   13.8689    7.2973    0.0000 H   0  0  0  0  0  0  0  0  0  0  0  0
   13.4704    7.9876    0.0000 H   0  0  0  0  0  0  0  0  0  0  0  0
    2.4675   -5.0700    0.0000 H   0  0  0  0  0  0  0  0  0  0  0  0
    3.2646   -5.0700    0.0000 H   0  0  0  0  0  0  0  0  0  0  0  0
   11.7817    8.0127    0.0000 H   0  0  0  0  0  0  0  0  0  0  0  0
   12.1803    7.3224    0.0000 H   0  0  0  0  0  0  0  0  0  0  0  0
    2.3100   -3.5581    0.0000 H   0  0  0  0  0  0  0  0  0  0  0  0
    1.4631   -3.7850    0.0000 H   0  0  0  0  0  0  0  0  0  0  0  0
    1.6900   -4.6319    0.0000 H   0  0  0  0  0  0  0  0  0  0  0  0
   13.0123    8.9050    0.0000 H   0  0  0  0  0  0  0  0  0  0  0  0
   12.3923    9.5250    0.0000 H   0  0  0  0  0  0  0  0  0  0  0  0
   11.7723    8.9050    0.0000 H   0  0  0  0  0  0  0  0  0  0  0  0
  1  7  1  0  0  0  0
  1  8  2  0  0  0  0
  1  9  2  0  0  0  0
  1 19  1  0  0  0  0
  2 15  1  0  0  0  0
  2 18  1  0  0  0  0
  3 18  1  0  0  0  0
  3 20  1  0  0  0  0
  4 14  1  0  0  0  0
  4 64  1  0  0  0  0
  5 16  1  0  0  0  0
  5 65  1  0  0  0  0
  6 17  1  0  0  0  0
  6 66  1  0  0  0  0
  7 78  1  0  0  0  0
 10 21  1  0  0  0  0
 10 46  1  0  0  0  0
 11 22  1  0  0  0  0
 11 51  1  0  0  0  0
 12 46  2  0  0  0  0
 13 51  2  0  0  0  0
 14 15  1  0  0  0  0
 14 16  1  0  0  0  0
 14 57  1  0  0  0  0
 15 19  1  0  0  0  0
 15 58  1  0  0  0  0
 16 17  1  0  0  0  0
 16 59  1  0  0  0  0
 17 18  1  0  0  0  0
 17 60  1  0  0  0  0
 18 61  1  0  0  0  0
 19 62  1  0  0  0  0
 19 63  1  0  0  0  0
 20 21  1  0  0  0  0
 20 67  1  0  0  0  0
 20 68  1  0  0  0  0
 21 22  1  0  0  0  0
 21 69  1  0  0  0  0
 22 70  1  0  0  0  0
 22 71  1  0  0  0  0
 23 24  1  0  0  0  0
 23 25  1  0  0  0  0
 23 72  1  0  0  0  0
 23 73  1  0  0  0  0
 24 27  1  0  0  0  0
 24 74  1  0  0  0  0
 24 75  1  0  0  0  0
 25 26  1  0  0  0  0
 25 76  1  0  0  0  0
 25 77  1  0  0  0  0
 26 28  1  0  0  0  0
 26 81  1  0  0  0  0
 26 82  1  0  0  0  0
 27 30  1  0  0  0  0
 27 79  1  0  0  0  0
 27 80  1  0  0  0  0
 28 35  1  0  0  0  0
 28 83  1  0  0  0  0
 28 84  1  0  0  0  0
 29 31  1  0  0  0  0
 29 32  1  0  0  0  0
 29 85  1  0  0  0  0
 29 86  1  0  0  0  0
 30 37  1  0  0  0  0
 30 87  1  0  0  0  0
 30 88  1  0  0  0  0
 31 33  1  0  0  0  0
 31 89  1  0  0  0  0
 31 90  1  0  0  0  0
 32 34  1  0  0  0  0
 32 91  1  0  0  0  0
 32 92  1  0  0  0  0
 33 36  1  0  0  0  0
 33 93  1  0  0  0  0
 33 94  1  0  0  0  0
 34 38  1  0  0  0  0
 34 95  1  0  0  0  0
 34 96  1  0  0  0  0
 35 40  1  0  0  0  0
 35 97  1  0  0  0  0
 35 98  1  0  0  0  0
 36 39  1  0  0  0  0
 36 99  1  0  0  0  0
 36100  1  0  0  0  0
 37 42  1  0  0  0  0
 37101  1  0  0  0  0
 37102  1  0  0  0  0
 38 41  1  0  0  0  0
 38103  1  0  0  0  0
 38104  1  0  0  0  0
 39 44  1  0  0  0  0
 39105  1  0  0  0  0
 39106  1  0  0  0  0
 40 45  1  0  0  0  0
 40107  1  0  0  0  0
 40108  1  0  0  0  0
 41 43  1  0  0  0  0
 41109  1  0  0  0  0
 41110  1  0  0  0  0
 42 47  1  0  0  0  0
 42111  1  0  0  0  0
 42112  1  0  0  0  0
 43 46  1  0  0  0  0
 43115  1  0  0  0  0
 43116  1  0  0  0  0
 44 48  1  0  0  0  0
 44113  1  0  0  0  0
 44114  1  0  0  0  0
 45 49  1  0  0  0  0
 45117  1  0  0  0  0
 45118  1  0  0  0  0
 47 50  1  0  0  0  0
 47119  1  0  0  0  0
 47120  1  0  0  0  0
 48 52  1  0  0  0  0
 48121  1  0  0  0  0
 48122  1  0  0  0  0
 49 51  1  0  0  0  0
 49123  1  0  0  0  0
 49124  1  0  0  0  0
 50 53  1  0  0  0  0
 50125  1  0  0  0  0
 50126  1  0  0  0  0
 52 54  1  0  0  0  0
 52127  1  0  0  0  0
 52128  1  0  0  0  0
 53 55  1  0  0  0  0
 53129  1  0  0  0  0
 53130  1  0  0  0  0
 54 56  1  0  0  0  0
 54131  1  0  0  0  0
 54132  1  0  0  0  0
 55133  1  0  0  0  0
 55134  1  0  0  0  0
 55135  1  0  0  0  0
 56136  1  0  0  0  0
 56137  1  0  0  0  0
 56138  1  0  0  0  0
M  END
> <PUBCHEM_COMPOUND_CID>
5346

> <PUBCHEM_COMPOUND_CANONICALIZED>
1

> <PUBCHEM_CACTVS_COMPLEXITY>
1050

> <PUBCHEM_CACTVS_HBOND_ACCEPTOR>
12

> <PUBCHEM_CACTVS_HBOND_DONOR>
4

> <PUBCHEM_CACTVS_ROTATABLE_BOND>
40

> <PUBCHEM_CACTVS_SUBSKEYS>
AAADcfB8PABAAAAAAAAAAAAAAAAAAAAAAAAkAAAAAAAAAAAAAAAAGgQACAAACBS0wAOCCAAABoIIAACQCHBAAAAAAAAAAAEAAAAREBIAAAAiQAAFAAAHAAHI6KyAAAAAAAAAAAAAAAAAAAAAAAAAAAAAAA==

> <PUBCHEM_IUPAC_OPENEYE_NAME>
[6-(2-hexadecanoyloxy-3-octadecanoyloxy-propoxy)-3,4,5-trihydroxy-tetrahydropyran-2-yl]methanesulfonic acid

> <PUBCHEM_IUPAC_CAS_NAME>
[3,4,5-trihydroxy-6-[2-(1-oxohexadecoxy)-3-(1-oxooctadecoxy)propoxy]-2-oxanyl]methanesulfonic acid

> <PUBCHEM_IUPAC_NAME>
[6-(2-hexadecanoyloxy-3-octadecanoyloxypropoxy)-3,4,5-trihydroxyoxan-2-yl]methanesulfonic acid

> <PUBCHEM_IUPAC_SYSTEMATIC_NAME>
[6-(2-hexadecanoyloxy-3-octadecanoyloxy-propoxy)-3,4,5-tris(oxidanyl)oxan-2-yl]methanesulfonic acid

> <PUBCHEM_IUPAC_TRADITIONAL_NAME>
[6-(2-hexadecanoyloxy-3-stearoyloxy-propoxy)-3,4,5-trihydroxy-tetrahydropyran-2-yl]methanesulfonic acid

> <PUBCHEM_IUPAC_INCHI>
InChI=1S/C43H82O12S/c1-3-5-7-9-11-13-15-17-18-20-21-23-25-27-29-31-38(44)52-33-36(34-53-43-42(48)41(47)40(46)37(55-43)35-56(49,50)51)54-39(45)32-30-28-26-24-22-19-16-14-12-10-8-6-4-2/h36-37,40-43,46-48H,3-35H2,1-2H3,(H,49,50,51)

> <PUBCHEM_IUPAC_INCHIKEY>
TYIZWJZWOXOFRT-UHFFFAOYSA-N

> <PUBCHEM_XLOGP3_AA>
12.5

> <PUBCHEM_EXACT_MASS>
822.552699

> <PUBCHEM_MOLECULAR_FORMULA>
C43H82O12S

> <PUBCHEM_MOLECULAR_WEIGHT>
823.16898

> <PUBCHEM_OPENEYE_CAN_SMILES>
CCCCCCCCCCCCCCCCCC(=O)OCC(COC1C(C(C(C(O1)CS(=O)(=O)O)O)O)O)OC(=O)CCCCCCCCCCCCCCC

> <PUBCHEM_OPENEYE_ISO_SMILES>
CCCCCCCCCCCCCCCCCC(=O)OCC(COC1C(C(C(C(O1)CS(=O)(=O)O)O)O)O)OC(=O)CCCCCCCCCCCCCCC

> <PUBCHEM_CACTVS_TPSA>
195

> <PUBCHEM_MONOISOTOPIC_WEIGHT>
822.552699

> <PUBCHEM_TOTAL_CHARGE>
0

> <PUBCHEM_HEAVY_ATOM_COUNT>
56

> <PUBCHEM_ATOM_DEF_STEREO_COUNT>
0

> <PUBCHEM_ATOM_UDEF_STEREO_COUNT>
6

> <PUBCHEM_BOND_DEF_STEREO_COUNT>
0

> <PUBCHEM_BOND_UDEF_STEREO_COUNT>
0

> <PUBCHEM_ISOTOPIC_ATOM_COUNT>
0

> <PUBCHEM_COMPONENT_COUNT>
1

> <PUBCHEM_CACTVS_TAUTO_COUNT>
1

> <PUBCHEM_COORDINATE_TYPE>
1
5
255

> <PUBCHEM_BONDANNOTATIONS>
15  19  3
21  20  3
18  3  3
14  4  3
16  5  3
17  6  3

$$$$

