13082
  -OEChem-06261207443D

 30 31  0     1  0  0  0  0  0999 V2000
    0.3509    1.2029    1.6991 O   0  0  0  0  0  0  0  0  0  0  0  0
    3.8231   -1.4992    0.5213 O   0  0  0  0  0  0  0  0  0  0  0  0
   -0.2954   -2.4029   -1.2362 O   0  0  0  0  0  0  0  0  0  0  0  0
   -0.1133   -0.4919    0.1343 N   0  0  0  0  0  0  0  0  0  0  0  0
    1.7003   -1.9796   -0.2320 N   0  0  0  0  0  0  0  0  0  0  0  0
    2.1947    0.2588    0.5375 C   0  0  2  0  0  0  0  0  0  0  0  0
    0.7230    0.3813    0.8587 C   0  0  0  0  0  0  0  0  0  0  0  0
    2.5143    1.1058   -0.6911 C   0  0  0  0  0  0  0  0  0  0  0  0
    2.6631   -1.1505    0.3120 C   0  0  0  0  0  0  0  0  0  0  0  0
   -1.5297   -0.1971    0.0929 C   0  0  0  0  0  0  0  0  0  0  0  0
    0.3611   -1.6748   -0.4867 C   0  0  0  0  0  0  0  0  0  0  0  0
    2.1288    2.5365   -0.4781 C   0  0  0  0  0  0  0  0  0  0  0  0
   -1.9589    1.1224    0.1688 C   0  0  0  0  0  0  0  0  0  0  0  0
   -2.4448   -1.2365   -0.0229 C   0  0  0  0  0  0  0  0  0  0  0  0
   -3.3238    1.4069    0.1287 C   0  0  0  0  0  0  0  0  0  0  0  0
   -3.8098   -0.9519   -0.0633 C   0  0  0  0  0  0  0  0  0  0  0  0
   -4.2492    0.3698    0.0125 C   0  0  0  0  0  0  0  0  0  0  0  0
    1.2655    3.2001   -1.2553 C   0  0  0  0  0  0  0  0  0  0  0  0
    2.7451    0.6329    1.4121 H   0  0  0  0  0  0  0  0  0  0  0  0
    2.0160    0.6999   -1.5813 H   0  0  0  0  0  0  0  0  0  0  0  0
    3.5908    1.0641   -0.9004 H   0  0  0  0  0  0  0  0  0  0  0  0
    2.0168   -2.8970   -0.5338 H   0  0  0  0  0  0  0  0  0  0  0  0
    2.5966    3.0651    0.3485 H   0  0  0  0  0  0  0  0  0  0  0  0
   -1.2781    1.9662    0.2023 H   0  0  0  0  0  0  0  0  0  0  0  0
   -2.1687   -2.2847   -0.0079 H   0  0  0  0  0  0  0  0  0  0  0  0
   -3.6662    2.4366    0.1753 H   0  0  0  0  0  0  0  0  0  0  0  0
   -4.5319   -1.7599   -0.1365 H   0  0  0  0  0  0  0  0  0  0  0  0
   -5.3120    0.5913   -0.0177 H   0  0  0  0  0  0  0  0  0  0  0  0
    1.0327    4.2400   -1.0539 H   0  0  0  0  0  0  0  0  0  0  0  0
    0.7764    2.7224   -2.0970 H   0  0  0  0  0  0  0  0  0  0  0  0
  1  7  2  0  0  0  0
  2  9  2  0  0  0  0
  3 11  2  0  0  0  0
  4  7  1  0  0  0  0
  4 10  1  0  0  0  0
  4 11  1  0  0  0  0
  5  9  1  0  0  0  0
  5 11  1  0  0  0  0
  5 22  1  0  0  0  0
  6  7  1  0  0  0  0
  6  8  1  0  0  0  0
  6  9  1  0  0  0  0
  6 19  1  0  0  0  0
  8 12  1  0  0  0  0
  8 20  1  0  0  0  0
  8 21  1  0  0  0  0
 10 13  2  0  0  0  0
 10 14  1  0  0  0  0
 12 18  2  0  0  0  0
 12 23  1  0  0  0  0
 13 15  1  0  0  0  0
 13 24  1  0  0  0  0
 14 16  2  0  0  0  0
 14 25  1  0  0  0  0
 15 17  2  0  0  0  0
 15 26  1  0  0  0  0
 16 17  1  0  0  0  0
 16 27  1  0  0  0  0
 17 28  1  0  0  0  0
 18 29  1  0  0  0  0
 18 30  1  0  0  0  0
M  END
> <PUBCHEM_COMPOUND_CID>
13082

> <PUBCHEM_CONFORMER_RMSD>
0.6

> <PUBCHEM_CONFORMER_DIVERSEORDER>
1
3
22
2
23
21
9
8
10
24
4
11
20
18
17
25
7
26
6
15
13
14
5
12
19
16

> <PUBCHEM_MMFF94_PARTIAL_CHARGES>
27
1 -0.57
10 0.12
11 0.69
12 -0.29
13 -0.15
14 -0.15
15 -0.15
16 -0.15
17 -0.15
18 -0.3
2 -0.57
22 0.37
23 0.15
24 0.15
25 0.15
26 0.15
27 0.15
28 0.15
29 0.15
3 -0.57
30 0.15
4 -0.24
5 -0.49
6 0.12
7 0.57
8 0.14
9 0.57

> <PUBCHEM_EFFECTIVE_ROTOR_COUNT>
3.6

> <PUBCHEM_PHARMACOPHORE_FEATURES>
8
1 1 acceptor
1 18 hydrophobe
1 2 acceptor
1 3 acceptor
1 5 donor
1 6 anion
6 10 13 14 15 16 17 rings
6 4 5 6 7 9 11 rings

> <PUBCHEM_HEAVY_ATOM_COUNT>
18

> <PUBCHEM_ATOM_DEF_STEREO_COUNT>
0

> <PUBCHEM_ATOM_UDEF_STEREO_COUNT>
1

> <PUBCHEM_BOND_DEF_STEREO_COUNT>
0

> <PUBCHEM_BOND_UDEF_STEREO_COUNT>
0

> <PUBCHEM_ISOTOPIC_ATOM_COUNT>
0

> <PUBCHEM_COMPONENT_COUNT>
1

> <PUBCHEM_CACTVS_TAUTO_COUNT>
3

> <PUBCHEM_CONFORMER_ID>
0000331A00000001

> <PUBCHEM_MMFF94_ENERGY>
60.7967

> <PUBCHEM_FEATURE_SELFOVERLAP>
40.594

> <PUBCHEM_SHAPE_FINGERPRINT>
116883 192 18051693540433399716
13583140 156 17703796955131231827
14115302 16 18186801391815236241
15375462 6 18270397166427852463
15442244 35 18340768238182736097
16945 1 18341884148032454642
17093844 170 17403466663199479677
17134986 127 18125152741187519740
18186145 218 18261097561325550725
19591789 44 16683434418899028467
20233049 118 18040999527148483576
20511035 2 18188780431251955370
20559304 39 18411700963285236080
20645476 183 18265609892515952254
20671657 1 18339640027868396388
21501502 16 18408884014800705635
21524375 3 17842278060420815916
22094290 62 18411982438193212548
2255824 54 18272370862766961154
22854114 111 18411980234859158869
23402539 116 18196382621785807963
23419403 2 15952502787961213691
23463225 33 18409731780867195299
23559900 14 18412832373851423363
2748010 2 17901104440551286254
3060560 45 18409721855371867564
3071541 158 18410294756500801536
4409770 3 17338172135451020692
44154327 71 18265328418061169127
474 4 17487053358224852205
6992083 37 18122050164018390081
7364860 26 18411981321586468824
81228 2 17615390889443822603
9709674 26 18410851075484277323
9981440 41 17623010093050958608

> <PUBCHEM_SHAPE_MULTIPOLES>
342.86
6.21
2.86
1.01
4.21
1.15
-0.08
0.01
-0.15
-1.96
1.07
-0.33
0.2
-0.75

> <PUBCHEM_SHAPE_SELFOVERLAP>
732.497

> <PUBCHEM_SHAPE_VOLUME>
187.5

> <PUBCHEM_COORDINATE_TYPE>
2
5
10

$$$$

