13078
  -OEChem-06261207443D

 25 26  0     0  0  0  0  0  0999 V2000
    0.0288    2.8878    0.7912 Cl  0  0  0  0  0  0  0  0  0  0  0  0
   -5.0668   -1.7068    0.1289 Cl  0  0  0  0  0  0  0  0  0  0  0  0
    5.0352   -1.7621    0.2533 Cl  0  0  0  0  0  0  0  0  0  0  0  0
    0.0080    1.4674   -0.3158 C   0  0  0  0  0  0  0  0  0  0  0  0
   -1.2523    0.6774   -0.2052 C   0  0  0  0  0  0  0  0  0  0  0  0
    1.2861    0.6481   -0.1707 C   0  0  0  0  0  0  0  0  0  0  0  0
   -1.8297    0.1218   -1.3470 C   0  0  0  0  0  0  0  0  0  0  0  0
    2.1980    0.6517   -1.2043 C   0  0  0  0  0  0  0  0  0  0  0  0
   -1.8542    0.4954    1.0398 C   0  0  0  0  0  0  0  0  0  0  0  0
    1.4859   -0.0701    0.9886 C   0  0  0  0  0  0  0  0  0  0  0  0
   -3.0091   -0.6158   -1.2435 C   0  0  0  0  0  0  0  0  0  0  0  0
    3.3662   -0.0988   -1.0719 C   0  0  0  0  0  0  0  0  0  0  0  0
   -3.0335   -0.2423    1.1432 C   0  0  0  0  0  0  0  0  0  0  0  0
    2.6543   -0.8206    1.1210 C   0  0  0  0  0  0  0  0  0  0  0  0
   -3.6110   -0.7979    0.0016 C   0  0  0  0  0  0  0  0  0  0  0  0
    3.5944   -0.8350    0.0907 C   0  0  0  0  0  0  0  0  0  0  0  0
    0.0105    1.9412   -1.3056 H   0  0  0  0  0  0  0  0  0  0  0  0
   -1.3706    0.2541   -2.3232 H   0  0  0  0  0  0  0  0  0  0  0  0
    2.0308    1.2207   -2.1136 H   0  0  0  0  0  0  0  0  0  0  0  0
   -1.4300    0.8988    1.9544 H   0  0  0  0  0  0  0  0  0  0  0  0
    0.7789   -0.0647    1.8104 H   0  0  0  0  0  0  0  0  0  0  0  0
   -3.4478   -1.0432   -2.1416 H   0  0  0  0  0  0  0  0  0  0  0  0
    4.0899   -0.1009   -1.8830 H   0  0  0  0  0  0  0  0  0  0  0  0
   -3.4901   -0.3789    2.1203 H   0  0  0  0  0  0  0  0  0  0  0  0
    2.8203   -1.3870    2.0339 H   0  0  0  0  0  0  0  0  0  0  0  0
  1  4  1  0  0  0  0
  2 15  1  0  0  0  0
  3 16  1  0  0  0  0
  4  5  1  0  0  0  0
  4  6  1  0  0  0  0
  4 17  1  0  0  0  0
  5  7  2  0  0  0  0
  5  9  1  0  0  0  0
  6  8  2  0  0  0  0
  6 10  1  0  0  0  0
  7 11  1  0  0  0  0
  7 18  1  0  0  0  0
  8 12  1  0  0  0  0
  8 19  1  0  0  0  0
  9 13  2  0  0  0  0
  9 20  1  0  0  0  0
 10 14  2  0  0  0  0
 10 21  1  0  0  0  0
 11 15  2  0  0  0  0
 11 22  1  0  0  0  0
 12 16  2  0  0  0  0
 12 23  1  0  0  0  0
 13 15  1  0  0  0  0
 13 24  1  0  0  0  0
 14 16  1  0  0  0  0
 14 25  1  0  0  0  0
M  END
> <PUBCHEM_COMPOUND_CID>
13078

> <PUBCHEM_CONFORMER_RMSD>
0.6

> <PUBCHEM_CONFORMER_DIVERSEORDER>
1
2
4
3
5

> <PUBCHEM_MMFF94_PARTIAL_CHARGES>
24
1 -0.29
10 -0.15
11 -0.15
12 -0.15
13 -0.15
14 -0.15
15 0.18
16 0.18
18 0.15
19 0.15
2 -0.18
20 0.15
21 0.15
22 0.15
23 0.15
24 0.15
25 0.15
3 -0.18
4 0.58
5 -0.14
6 -0.14
7 -0.15
8 -0.15
9 -0.15

> <PUBCHEM_EFFECTIVE_ROTOR_COUNT>
2

> <PUBCHEM_PHARMACOPHORE_FEATURES>
2
6 5 7 9 11 13 15 rings
6 6 8 10 12 14 16 rings

> <PUBCHEM_HEAVY_ATOM_COUNT>
16

> <PUBCHEM_ATOM_DEF_STEREO_COUNT>
0

> <PUBCHEM_ATOM_UDEF_STEREO_COUNT>
0

> <PUBCHEM_BOND_DEF_STEREO_COUNT>
0

> <PUBCHEM_BOND_UDEF_STEREO_COUNT>
0

> <PUBCHEM_ISOTOPIC_ATOM_COUNT>
0

> <PUBCHEM_COMPONENT_COUNT>
1

> <PUBCHEM_CACTVS_TAUTO_COUNT>
1

> <PUBCHEM_CONFORMER_ID>
0000331600000001

> <PUBCHEM_MMFF94_ENERGY>
41.6633

> <PUBCHEM_FEATURE_SELFOVERLAP>
10.149

> <PUBCHEM_SHAPE_FINGERPRINT>
10618630 7 18409728495306832694
11046707 91 18408887373180242458
11578080 2 18339940263015148156
11806522 49 18202564003949686194
12251169 10 15285642079454720681
12363563 72 18409167709784819874
12507560 40 14779538023935107538
12553582 1 18186801357207513446
12633257 1 15719401611314669946
12707595 3 18410862023044028933
12892183 10 15864340393686859863
13288520 33 18336826498088110686
13296908 3 18409175406371859365
13581323 91 16588015793294714293
13675066 3 16732974302842292743
13705890 14 17489586766707217156
14178342 30 17604696897881792267
1420 369 18408884066187806670
14251764 38 10157397780765190334
14576447 43 17847063311529876666
15188451 53 16950855696124913503
15653759 3 16008744723245350834
1741750 31 9727339239118801252
17804303 29 16154248594681343349
1813 80 18114453505037807012
18186145 218 14908175356741202484
18222031 100 17894348852352956021
18915474 69 18201716219706802014
193927 3 18271234010788692894
19422 9 18340758303912675029
19784866 170 14273458089558633114
19784866 240 18413387644334845007
200 152 18202845469693007530
20112054 13 6483344539154296026
20281475 54 18343016679600735313
20361792 2 18334862701237585213
20388580 30 18272366447482454780
20645476 183 10159686980567915881
20645477 56 10663233688453461604
20645477 70 17988645164042047358
20671657 53 18410573955403529073
20832881 197 18413106148320712955
20871999 31 15913333507050752071
21065199 12 14923939063517410671
21296965 67 18409451375416819841
21713013 43 17274825731516810767
21731228 192 5545192835234026148
2255824 54 18119525444839601941
22646028 28 18411982472500417702
23402539 116 18341612680925473578
23402655 69 15697447744246959918
23403322 49 18202286943408526354
23559900 14 16343420609616794044
23598288 3 18263077884978623412
270888 7 9151174250837695419
27216 239 6915963890261697583
2871803 45 17060622183038551667
3286 77 18340770334648652183
4028521 119 13039190307607389655
4280585 95 16695570265864973514
465052 167 18338226047810704887
633830 44 12390964513000016661
7364860 26 17751639840722833505
76465 3 18411700984596509683
7970288 3 18408885131108100695
81228 2 18044094785272101161
83771 10 18410572889950757836
94968 8 18272651199382029451

> <PUBCHEM_SHAPE_MULTIPOLES>
334.88
8.94
1.97
1.33
0
1.08
-0.12
-7.67
0.16
0.13
0.46
-0.1
0.06
-0.46

> <PUBCHEM_SHAPE_SELFOVERLAP>
691.217

> <PUBCHEM_SHAPE_VOLUME>
185.6

> <PUBCHEM_COORDINATE_TYPE>
2
5
10

$$$$

