11743
  -OEChem-06261206043D

 26 26  0     0  0  0  0  0  0999 V2000
    1.6797   -0.0764    0.7811 S   0  0  0  0  0  0  0  0  0  0  0  0
    1.9976    1.1386    1.5084 O   0  0  0  0  0  0  0  0  0  0  0  0
    1.9573   -1.3650    1.3883 O   0  0  0  0  0  0  0  0  0  0  0  0
    2.3986   -0.0124   -0.7851 N   0  0  0  0  0  0  0  0  0  0  0  0
   -0.0522   -0.0311    0.4135 C   0  0  0  0  0  0  0  0  0  0  0  0
   -0.7292   -1.2201    0.2158 C   0  0  0  0  0  0  0  0  0  0  0  0
   -0.6902    1.1926    0.3325 C   0  0  0  0  0  0  0  0  0  0  0  0
   -2.7558    0.0401   -0.1596 C   0  0  0  0  0  0  0  0  0  0  0  0
   -2.0934   -1.1842   -0.0734 C   0  0  0  0  0  0  0  0  0  0  0  0
   -2.0543    1.2286    0.0434 C   0  0  0  0  0  0  0  0  0  0  0  0
    2.0729   -1.0998   -1.7425 C   0  0  0  0  0  0  0  0  0  0  0  0
    2.4834    1.3104   -1.4548 C   0  0  0  0  0  0  0  0  0  0  0  0
   -4.2146    0.0787   -0.4674 C   0  0  0  0  0  0  0  0  0  0  0  0
   -0.2306   -2.1825    0.2742 H   0  0  0  0  0  0  0  0  0  0  0  0
   -0.1600    2.1282    0.4809 H   0  0  0  0  0  0  0  0  0  0  0  0
    2.0410   -2.0670   -1.2334 H   0  0  0  0  0  0  0  0  0  0  0  0
    2.8575   -1.1621   -2.5035 H   0  0  0  0  0  0  0  0  0  0  0  0
    1.1160   -0.9124   -2.2373 H   0  0  0  0  0  0  0  0  0  0  0  0
    2.8766    2.0647   -0.7682 H   0  0  0  0  0  0  0  0  0  0  0  0
    1.5022    1.6224   -1.8222 H   0  0  0  0  0  0  0  0  0  0  0  0
    3.1753    1.2530   -2.3012 H   0  0  0  0  0  0  0  0  0  0  0  0
   -2.6292   -2.1169   -0.2286 H   0  0  0  0  0  0  0  0  0  0  0  0
   -2.5596    2.1887   -0.0207 H   0  0  0  0  0  0  0  0  0  0  0  0
   -4.5083   -0.7685   -1.0966 H   0  0  0  0  0  0  0  0  0  0  0  0
   -4.7951    0.0450    0.4598 H   0  0  0  0  0  0  0  0  0  0  0  0
   -4.4790    0.9901   -1.0144 H   0  0  0  0  0  0  0  0  0  0  0  0
  1  2  2  0  0  0  0
  1  3  2  0  0  0  0
  1  4  1  0  0  0  0
  1  5  1  0  0  0  0
  4 11  1  0  0  0  0
  4 12  1  0  0  0  0
  5  6  2  0  0  0  0
  5  7  1  0  0  0  0
  6  9  1  0  0  0  0
  6 14  1  0  0  0  0
  7 10  2  0  0  0  0
  7 15  1  0  0  0  0
  8  9  2  0  0  0  0
  8 10  1  0  0  0  0
  8 13  1  0  0  0  0
  9 22  1  0  0  0  0
 10 23  1  0  0  0  0
 11 16  1  0  0  0  0
 11 17  1  0  0  0  0
 11 18  1  0  0  0  0
 12 19  1  0  0  0  0
 12 20  1  0  0  0  0
 12 21  1  0  0  0  0
 13 24  1  0  0  0  0
 13 25  1  0  0  0  0
 13 26  1  0  0  0  0
M  END
> <PUBCHEM_COMPOUND_CID>
11743

> <PUBCHEM_CONFORMER_RMSD>
0.6

> <PUBCHEM_CONFORMER_DIVERSEORDER>
1
3
2

> <PUBCHEM_MMFF94_PARTIAL_CHARGES>
17
1 1.45
10 -0.15
11 0.36
12 0.36
13 0.14
14 0.15
15 0.15
2 -0.65
22 0.15
23 0.15
3 -0.65
4 -0.85
5 -0.01
6 -0.15
7 -0.15
8 -0.14
9 -0.15

> <PUBCHEM_EFFECTIVE_ROTOR_COUNT>
2

> <PUBCHEM_PHARMACOPHORE_FEATURES>
3
1 2 acceptor
1 3 acceptor
6 5 6 7 8 9 10 rings

> <PUBCHEM_HEAVY_ATOM_COUNT>
13

> <PUBCHEM_ATOM_DEF_STEREO_COUNT>
0

> <PUBCHEM_ATOM_UDEF_STEREO_COUNT>
0

> <PUBCHEM_BOND_DEF_STEREO_COUNT>
0

> <PUBCHEM_BOND_UDEF_STEREO_COUNT>
0

> <PUBCHEM_ISOTOPIC_ATOM_COUNT>
0

> <PUBCHEM_COMPONENT_COUNT>
1

> <PUBCHEM_CACTVS_TAUTO_COUNT>
1

> <PUBCHEM_CONFORMER_ID>
00002DDF00000001

> <PUBCHEM_MMFF94_ENERGY>
20.782

> <PUBCHEM_FEATURE_SELFOVERLAP>
15.242

> <PUBCHEM_SHAPE_FINGERPRINT>
11031198 65 16415184681141765182
11769659 78 15357708491566929517
12326174 3 15502376742533998590
12524768 44 18113624439073963473
12897270 3 18189318118112478076
12932764 1 18409171008741677083
13538477 17 17917993845571236747
14289901 80 14836112257167130589
15775835 57 17203322269679413724
16945 1 18408044017986981267
18186145 218 18342457079996137725
18522853 295 18335985350017617595
20201158 50 17676485055578253718
20279233 1 17821732710629205655
20361792 2 15285904944607338852
20559304 39 17845942917164101664
20645476 183 18060416898284754487
20645477 70 15791450426913978229
20711985 344 17969771067751645393
22802520 49 18114168744484766379
23552423 10 18131357435542311099
23557571 272 18117562829447649331
2748010 2 18048325444591619705
3248919 1 17022913332594958107
5084963 1 17844820367437154155
581208 293 16878238484389297279
7364860 26 18202286918139518786
8030462 33 18343865541142368003

> <PUBCHEM_SHAPE_MULTIPOLES>
254.66
5.34
1.49
1.4
3.5
0.01
0.14
0.28
1.48
-0.31
0.02
-1.51
-0.06
-0.05

> <PUBCHEM_SHAPE_SELFOVERLAP>
503.897

> <PUBCHEM_SHAPE_VOLUME>
153.6

> <PUBCHEM_COORDINATE_TYPE>
2
5
10

$$$$

