8416
  -OEChem-06261202483D

 28 28  0     0  0  0  0  0  0999 V2000
    2.3814    3.3211    0.0879 O   0  0  0  0  0  0  0  0  0  0  0  0
    2.3842   -3.3193   -0.0761 O   0  0  0  0  0  0  0  0  0  0  0  0
    0.8126    0.0006   -0.0084 N   0  0  0  0  0  0  0  0  0  0  0  0
    1.5445    1.1557   -0.4885 C   0  0  0  0  0  0  0  0  0  0  0  0
    1.5485   -1.1484    0.4806 C   0  0  0  0  0  0  0  0  0  0  0  0
   -0.5979   -0.0002   -0.0044 C   0  0  0  0  0  0  0  0  0  0  0  0
    1.6433    2.2172    0.5954 C   0  0  0  0  0  0  0  0  0  0  0  0
    1.6422   -2.2220   -0.5919 C   0  0  0  0  0  0  0  0  0  0  0  0
   -1.2974    1.1156   -0.4644 C   0  0  0  0  0  0  0  0  0  0  0  0
   -1.2932   -1.1166    0.4601 C   0  0  0  0  0  0  0  0  0  0  0  0
   -2.6924    1.1149   -0.4597 C   0  0  0  0  0  0  0  0  0  0  0  0
   -2.6881   -1.1172    0.4646 C   0  0  0  0  0  0  0  0  0  0  0  0
   -3.3876   -0.0014    0.0047 C   0  0  0  0  0  0  0  0  0  0  0  0
    1.1425    1.5605   -1.4254 H   0  0  0  0  0  0  0  0  0  0  0  0
    2.5653    0.8597   -0.7686 H   0  0  0  0  0  0  0  0  0  0  0  0
    1.1502   -1.5399    1.4248 H   0  0  0  0  0  0  0  0  0  0  0  0
    2.5707   -0.8493    0.7518 H   0  0  0  0  0  0  0  0  0  0  0  0
    2.1675    1.8257    1.4741 H   0  0  0  0  0  0  0  0  0  0  0  0
    0.6638    2.5802    0.9189 H   0  0  0  0  0  0  0  0  0  0  0  0
    2.1678   -1.8442   -1.4752 H   0  0  0  0  0  0  0  0  0  0  0  0
    0.6670   -2.5907   -0.9216 H   0  0  0  0  0  0  0  0  0  0  0  0
   -0.8177    2.0132   -0.8384 H   0  0  0  0  0  0  0  0  0  0  0  0
   -0.8100   -2.0135    0.8312 H   0  0  0  0  0  0  0  0  0  0  0  0
   -3.2380    1.9831   -0.8178 H   0  0  0  0  0  0  0  0  0  0  0  0
   -3.2306   -1.9860    0.8263 H   0  0  0  0  0  0  0  0  0  0  0  0
   -4.4736   -0.0020    0.0084 H   0  0  0  0  0  0  0  0  0  0  0  0
    2.4407    3.9776    0.8028 H   0  0  0  0  0  0  0  0  0  0  0  0
    1.8929   -3.6728    0.6850 H   0  0  0  0  0  0  0  0  0  0  0  0
  1  7  1  0  0  0  0
  1 27  1  0  0  0  0
  2  8  1  0  0  0  0
  2 28  1  0  0  0  0
  3  4  1  0  0  0  0
  3  5  1  0  0  0  0
  3  6  1  0  0  0  0
  4  7  1  0  0  0  0
  4 14  1  0  0  0  0
  4 15  1  0  0  0  0
  5  8  1  0  0  0  0
  5 16  1  0  0  0  0
  5 17  1  0  0  0  0
  6  9  2  0  0  0  0
  6 10  1  0  0  0  0
  7 18  1  0  0  0  0
  7 19  1  0  0  0  0
  8 20  1  0  0  0  0
  8 21  1  0  0  0  0
  9 11  1  0  0  0  0
  9 22  1  0  0  0  0
 10 12  2  0  0  0  0
 10 23  1  0  0  0  0
 11 13  2  0  0  0  0
 11 24  1  0  0  0  0
 12 13  1  0  0  0  0
 12 25  1  0  0  0  0
 13 26  1  0  0  0  0
M  END
> <PUBCHEM_COMPOUND_CID>
8416

> <PUBCHEM_CONFORMER_RMSD>
0.6

> <PUBCHEM_CONFORMER_DIVERSEORDER>
2
46
39
49
33
29
35
50
3
20
30
24
38
17
52
37
51
13
41
1
43
14
36
27
45
26
32
6
40
7
42
47
16
21
8
10
31
15
25
28
4
9
48
23
34
18
19
5
22
12
44
11

> <PUBCHEM_MMFF94_PARTIAL_CHARGES>
20
1 -0.68
10 -0.15
11 -0.15
12 -0.15
13 -0.15
2 -0.68
22 0.15
23 0.15
24 0.15
25 0.15
26 0.15
27 0.4
28 0.4
3 -0.84
4 0.37
5 0.37
6 0.1
7 0.28
8 0.28
9 -0.15

> <PUBCHEM_EFFECTIVE_ROTOR_COUNT>
5

> <PUBCHEM_PHARMACOPHORE_FEATURES>
6
1 1 acceptor
1 1 donor
1 2 acceptor
1 2 donor
1 3 cation
6 6 9 10 11 12 13 rings

> <PUBCHEM_HEAVY_ATOM_COUNT>
13

> <PUBCHEM_ATOM_DEF_STEREO_COUNT>
0

> <PUBCHEM_ATOM_UDEF_STEREO_COUNT>
0

> <PUBCHEM_BOND_DEF_STEREO_COUNT>
0

> <PUBCHEM_BOND_UDEF_STEREO_COUNT>
0

> <PUBCHEM_ISOTOPIC_ATOM_COUNT>
0

> <PUBCHEM_COMPONENT_COUNT>
1

> <PUBCHEM_CACTVS_TAUTO_COUNT>
1

> <PUBCHEM_CONFORMER_ID>
000020E000000002

> <PUBCHEM_MMFF94_ENERGY>
41.4354

> <PUBCHEM_FEATURE_SELFOVERLAP>
30.446

> <PUBCHEM_SHAPE_FINGERPRINT>
1 1 18337671906375680620
12524768 44 18343865498451196679
13380535 21 18270102557515062089
13380535 76 18198069088118531875
14648413 74 18411984688819437713
15042514 8 17259905122652096530
16945 1 18410011039730360965
17841504 4 18337953505774606375
17990270 104 18411141376185783907
18380122 1 18129095615865024321
19973954 147 18411701019346586217
20645477 70 18412271623359308919
20711985 344 17401771220780362858
20871998 184 17621029863828897307
21501502 16 18410575080832289801
21524375 3 18053389790553924168
23552423 10 18130783477846159639
23557571 272 17832139794888329326
2748010 2 17909252603423404438
305870 269 18267029353706553544
3084891 72 17331126507942645735
7364860 26 18409448085392301574
81228 2 17471004156714314378

> <PUBCHEM_SHAPE_MULTIPOLES>
250.81
4.56
3.32
0.76
2.41
0
0
0
0.01
-4.23
0.01
0
0
0.65

> <PUBCHEM_SHAPE_SELFOVERLAP>
502.542

> <PUBCHEM_SHAPE_VOLUME>
148.2

> <PUBCHEM_COORDINATE_TYPE>
2
5
10

$$$$

