586330
  -OEChem-06241222463D

 45 47  0     1  0  0  0  0  0999 V2000
    0.1063   -0.2145    1.5971 O   0  0  0  0  0  0  0  0  0  0  0  0
    1.3585   -4.4700    0.5640 O   0  0  0  0  0  0  0  0  0  0  0  0
   -2.5948   -2.9235   -1.1236 O   0  0  0  0  0  0  0  0  0  0  0  0
    2.5346    3.1638   -0.5177 O   0  0  0  0  0  0  0  0  0  0  0  0
    5.1891    2.7146    0.1711 O   0  0  0  0  0  0  0  0  0  0  0  0
   -5.1330    2.6574   -0.0688 O   0  0  0  0  0  0  0  0  0  0  0  0
   -1.3013   -1.4040    0.1341 N   0  0  0  0  0  0  0  0  0  0  0  0
   -0.6820   -3.6780   -0.1526 N   0  0  0  0  0  0  0  0  0  0  0  0
    1.0331   -2.0972    0.4849 C   0  0  1  0  0  0  0  0  0  0  0  0
    1.7359   -1.6435   -0.7915 C   0  0  0  0  0  0  0  0  0  0  0  0
   -0.0901   -1.1377    0.8039 C   0  0  0  0  0  0  0  0  0  0  0  0
    0.6010   -3.5284    0.3392 C   0  0  0  0  0  0  0  0  0  0  0  0
    2.6539   -0.4799   -0.5355 C   0  0  0  0  0  0  0  0  0  0  0  0
   -1.6130   -2.6714   -0.4196 C   0  0  0  0  0  0  0  0  0  0  0  0
   -2.2936   -0.3517    0.0810 C   0  0  0  0  0  0  0  0  0  0  0  0
    2.1648    0.8149   -0.6463 C   0  0  0  0  0  0  0  0  0  0  0  0
    3.9785   -0.7153   -0.1922 C   0  0  0  0  0  0  0  0  0  0  0  0
    3.0162    1.8942   -0.4095 C   0  0  0  0  0  0  0  0  0  0  0  0
   -1.8868    0.9768    0.0824 C   0  0  0  0  0  0  0  0  0  0  0  0
   -3.6423   -0.6821    0.0305 C   0  0  0  0  0  0  0  0  0  0  0  0
    4.8298    0.3639    0.0446 C   0  0  0  0  0  0  0  0  0  0  0  0
    4.3487    1.6686   -0.0639 C   0  0  0  0  0  0  0  0  0  0  0  0
   -2.8435    1.9907    0.0328 C   0  0  0  0  0  0  0  0  0  0  0  0
   -4.5991    0.3317   -0.0192 C   0  0  0  0  0  0  0  0  0  0  0  0
   -4.1996    1.6682   -0.0182 C   0  0  0  0  0  0  0  0  0  0  0  0
    1.9836    3.7507    0.6597 C   0  0  0  0  0  0  0  0  0  0  0  0
   -4.6552    4.0019   -0.0667 C   0  0  0  0  0  0  0  0  0  0  0  0
    1.7207   -2.0799    1.3422 H   0  0  0  0  0  0  0  0  0  0  0  0
    1.0129   -1.3733   -1.5733 H   0  0  0  0  0  0  0  0  0  0  0  0
    2.3229   -2.4656   -1.2239 H   0  0  0  0  0  0  0  0  0  0  0  0
   -0.9594   -4.6232   -0.4024 H   0  0  0  0  0  0  0  0  0  0  0  0
    1.1369    0.9972   -0.9411 H   0  0  0  0  0  0  0  0  0  0  0  0
    4.3626   -1.7275   -0.1026 H   0  0  0  0  0  0  0  0  0  0  0  0
   -0.8475    1.2805    0.0747 H   0  0  0  0  0  0  0  0  0  0  0  0
   -4.0155   -1.6972    0.1053 H   0  0  0  0  0  0  0  0  0  0  0  0
    5.8665    0.1815    0.3143 H   0  0  0  0  0  0  0  0  0  0  0  0
   -2.4642    3.0070    0.0264 H   0  0  0  0  0  0  0  0  0  0  0  0
   -5.6548    0.0755   -0.0421 H   0  0  0  0  0  0  0  0  0  0  0  0
    4.7038    3.5427    0.0134 H   0  0  0  0  0  0  0  0  0  0  0  0
    2.7277    3.7859    1.4617 H   0  0  0  0  0  0  0  0  0  0  0  0
    1.1035    3.1892    0.9893 H   0  0  0  0  0  0  0  0  0  0  0  0
    1.6770    4.7729    0.4217 H   0  0  0  0  0  0  0  0  0  0  0  0
   -4.1236    4.2387    0.8612 H   0  0  0  0  0  0  0  0  0  0  0  0
   -5.5319    4.6565   -0.1087 H   0  0  0  0  0  0  0  0  0  0  0  0
   -4.0533    4.2163   -0.9563 H   0  0  0  0  0  0  0  0  0  0  0  0
  1 11  2  0  0  0  0
  2 12  2  0  0  0  0
  3 14  2  0  0  0  0
  4 18  1  0  0  0  0
  4 26  1  0  0  0  0
  5 22  1  0  0  0  0
  5 39  1  0  0  0  0
  6 25  1  0  0  0  0
  6 27  1  0  0  0  0
  7 11  1  0  0  0  0
  7 14  1  0  0  0  0
  7 15  1  0  0  0  0
  8 12  1  0  0  0  0
  8 14  1  0  0  0  0
  8 31  1  0  0  0  0
  9 10  1  0  0  0  0
  9 11  1  0  0  0  0
  9 12  1  0  0  0  0
  9 28  1  0  0  0  0
 10 13  1  0  0  0  0
 10 29  1  0  0  0  0
 10 30  1  0  0  0  0
 13 16  2  0  0  0  0
 13 17  1  0  0  0  0
 15 19  2  0  0  0  0
 15 20  1  0  0  0  0
 16 18  1  0  0  0  0
 16 32  1  0  0  0  0
 17 21  2  0  0  0  0
 17 33  1  0  0  0  0
 18 22  2  0  0  0  0
 19 23  1  0  0  0  0
 19 34  1  0  0  0  0
 20 24  2  0  0  0  0
 20 35  1  0  0  0  0
 21 22  1  0  0  0  0
 21 36  1  0  0  0  0
 23 25  2  0  0  0  0
 23 37  1  0  0  0  0
 24 25  1  0  0  0  0
 24 38  1  0  0  0  0
 26 40  1  0  0  0  0
 26 41  1  0  0  0  0
 26 42  1  0  0  0  0
 27 43  1  0  0  0  0
 27 44  1  0  0  0  0
 27 45  1  0  0  0  0
M  END
> <PUBCHEM_COMPOUND_CID>
586330

> <PUBCHEM_CONFORMER_RMSD>
0.8

> <PUBCHEM_CONFORMER_DIVERSEORDER>
1
60
12
31
35
40
68
58
38
33
43
56
26
54
70
29
72
55
16
15
62
65
24
18
27
14
36
74
30
41
64
7
42
5
22
69
66
59
37
50
13
46
20
39
57
25
28
67
23
52
71
9
11
8
73
3
32
61
19
49
44
51
10
34
4
63
21
17
53
47
75
48
6
45
2

> <PUBCHEM_MMFF94_PARTIAL_CHARGES>
36
1 -0.57
10 0.14
11 0.57
12 0.57
13 -0.14
14 0.69
15 0.12
16 -0.15
17 -0.15
18 0.08
19 -0.15
2 -0.57
20 -0.15
21 -0.15
22 0.08
23 -0.15
24 -0.15
25 0.08
26 0.28
27 0.28
3 -0.57
31 0.37
32 0.15
33 0.15
34 0.15
35 0.15
36 0.15
37 0.15
38 0.15
39 0.45
4 -0.36
5 -0.53
6 -0.36
7 -0.24
8 -0.49
9 0.12

> <PUBCHEM_EFFECTIVE_ROTOR_COUNT>
5.6

> <PUBCHEM_PHARMACOPHORE_FEATURES>
11
1 1 acceptor
1 2 acceptor
1 3 acceptor
1 4 acceptor
1 5 donor
1 6 acceptor
1 8 donor
1 9 anion
6 13 16 17 18 21 22 rings
6 15 19 20 23 24 25 rings
6 7 8 9 11 12 14 rings

> <PUBCHEM_HEAVY_ATOM_COUNT>
27

> <PUBCHEM_ATOM_DEF_STEREO_COUNT>
0

> <PUBCHEM_ATOM_UDEF_STEREO_COUNT>
1

> <PUBCHEM_BOND_DEF_STEREO_COUNT>
0

> <PUBCHEM_BOND_UDEF_STEREO_COUNT>
0

> <PUBCHEM_ISOTOPIC_ATOM_COUNT>
0

> <PUBCHEM_COMPONENT_COUNT>
1

> <PUBCHEM_CACTVS_TAUTO_COUNT>
9

> <PUBCHEM_CONFORMER_ID>
0008F25A00000001

> <PUBCHEM_MMFF94_ENERGY>
110.2326

> <PUBCHEM_FEATURE_SELFOVERLAP>
55.818

> <PUBCHEM_SHAPE_FINGERPRINT>
10411042 1 17187002536580334299
10937287 8 18411416219748547551
1100329 8 18410576223499507274
11370993 70 18410292488879349636
12107183 9 18342470248819450858
12173636 292 18339080367780776759
12403260 363 18195256516269297862
12422481 6 17700432526426976200
12769317 202 18339651164586836421
12788726 201 18122918520458841938
12925494 130 18267582601941419793
13590594 115 17258487271895233963
13617811 41 18194418706000245453
138480 1 17763181736301639031
13965767 371 17988368168921792550
14251764 38 18266459789545973836
14251764 75 18263633117076533609
14466204 15 18340774827200547616
14790565 3 18410290341559777609
14955137 171 17983299515092784978
15082195 135 18121804939467465021
15320467 1 17834394523210879229
15420108 30 18338816601239291306
18681886 176 17976267055801113211
19591789 44 18338232657564289793
19930381 70 18267584796088854917
20715895 44 18337112383590247488
21033648 144 18128820935848596221
23227448 37 18335419015450528247
23558518 356 18056195770081863842
23559900 14 18051133897900247331
25265897 201 17970317435025793485
3380486 145 17117469975026518779
3680242 22 18198343047055826072
474 4 18411698828617677897
508706 21 17974853869984511744
5104073 3 17984974050200636505
6328613 192 18200303331040062340
6371009 1 18339659840483941629
7808743 9 18410015394605757233
9709674 26 18119519939340310134
9981440 41 18341894065196370259

> <PUBCHEM_SHAPE_MULTIPOLES>
510.47
9.91
5.58
0.85
2.65
0.93
0.07
-10.57
-0.74
0.29
0.21
-0.12
0.17
-0.26

> <PUBCHEM_SHAPE_SELFOVERLAP>
1108.498

> <PUBCHEM_SHAPE_VOLUME>
276.7

> <PUBCHEM_COORDINATE_TYPE>
2
5
10

$$$$

