10298
  -OEChem-06261204263D

 41 42  0     0  0  0  0  0  0999 V2000
   -4.9181   -1.1457    0.1505 N   0  0  0  0  0  0  0  0  0  0  0  0
    4.9377   -1.0228    0.1623 N   0  0  0  0  0  0  0  0  0  0  0  0
   -0.0165    2.9586   -0.4269 N   0  0  0  0  0  0  0  0  0  0  0  0
   -1.2826    0.9374   -0.1397 C   0  0  0  0  0  0  0  0  0  0  0  0
    1.2931    0.9477   -0.1338 C   0  0  0  0  0  0  0  0  0  0  0  0
   -0.0240    1.6589   -0.2407 C   0  0  0  0  0  0  0  0  0  0  0  0
   -3.6974   -0.4462    0.0531 C   0  0  0  0  0  0  0  0  0  0  0  0
    3.7002   -0.3536    0.0619 C   0  0  0  0  0  0  0  0  0  0  0  0
   -1.3604   -0.3909   -0.5574 C   0  0  0  0  0  0  0  0  0  0  0  0
    1.8678    0.4658   -1.2829 C   0  0  0  0  0  0  0  0  0  0  0  0
   -2.4121    1.5742    0.3745 C   0  0  0  0  0  0  0  0  0  0  0  0
    1.8608    0.8121    1.1082 C   0  0  0  0  0  0  0  0  0  0  0  0
   -2.5678   -1.0828   -0.4613 C   0  0  0  0  0  0  0  0  0  0  0  0
    3.0916   -0.1960   -1.1835 C   0  0  0  0  0  0  0  0  0  0  0  0
   -3.6196    0.8825    0.4709 C   0  0  0  0  0  0  0  0  0  0  0  0
    3.0847    0.1504    1.2077 C   0  0  0  0  0  0  0  0  0  0  0  0
   -4.9276   -2.5801    0.3583 C   0  0  0  0  0  0  0  0  0  0  0  0
   -6.1794   -0.4374    0.0579 C   0  0  0  0  0  0  0  0  0  0  0  0
    5.8843   -0.6632    1.1996 C   0  0  0  0  0  0  0  0  0  0  0  0
    5.2850   -2.0689   -0.7788 C   0  0  0  0  0  0  0  0  0  0  0  0
   -0.5079   -0.9186   -0.9728 H   0  0  0  0  0  0  0  0  0  0  0  0
    1.3998    0.5917   -2.2543 H   0  0  0  0  0  0  0  0  0  0  0  0
   -2.3732    2.6055    0.7155 H   0  0  0  0  0  0  0  0  0  0  0  0
    1.3824    1.2011    2.0015 H   0  0  0  0  0  0  0  0  0  0  0  0
   -2.5981   -2.1118   -0.8081 H   0  0  0  0  0  0  0  0  0  0  0  0
    3.5500   -0.5652   -2.0965 H   0  0  0  0  0  0  0  0  0  0  0  0
   -4.4765    1.4035    0.8885 H   0  0  0  0  0  0  0  0  0  0  0  0
    3.5260    0.0339    2.1936 H   0  0  0  0  0  0  0  0  0  0  0  0
   -4.1778   -2.8833    1.0978 H   0  0  0  0  0  0  0  0  0  0  0  0
   -5.8983   -2.9183    0.7379 H   0  0  0  0  0  0  0  0  0  0  0  0
   -4.7396   -3.1097   -0.5815 H   0  0  0  0  0  0  0  0  0  0  0  0
   -6.4235    0.0466    1.0094 H   0  0  0  0  0  0  0  0  0  0  0  0
   -6.1581    0.3187   -0.7352 H   0  0  0  0  0  0  0  0  0  0  0  0
   -7.0000   -1.1224   -0.1833 H   0  0  0  0  0  0  0  0  0  0  0  0
    5.6039   -1.1183    2.1553 H   0  0  0  0  0  0  0  0  0  0  0  0
    5.9487    0.4235    1.3246 H   0  0  0  0  0  0  0  0  0  0  0  0
    6.8933   -1.0121    0.9523 H   0  0  0  0  0  0  0  0  0  0  0  0
    6.0856   -2.7047   -0.3844 H   0  0  0  0  0  0  0  0  0  0  0  0
    5.6392   -1.6404   -1.7222 H   0  0  0  0  0  0  0  0  0  0  0  0
    4.4321   -2.7266   -0.9808 H   0  0  0  0  0  0  0  0  0  0  0  0
    0.9473    3.3073   -0.4741 H   0  0  0  0  0  0  0  0  0  0  0  0
  1  7  1  0  0  0  0
  1 17  1  0  0  0  0
  1 18  1  0  0  0  0
  2  8  1  0  0  0  0
  2 19  1  0  0  0  0
  2 20  1  0  0  0  0
  3  6  2  0  0  0  0
  3 41  1  0  0  0  0
  4  6  1  0  0  0  0
  4  9  2  0  0  0  0
  4 11  1  0  0  0  0
  5  6  1  0  0  0  0
  5 10  2  0  0  0  0
  5 12  1  0  0  0  0
  7 13  2  0  0  0  0
  7 15  1  0  0  0  0
  8 14  2  0  0  0  0
  8 16  1  0  0  0  0
  9 13  1  0  0  0  0
  9 21  1  0  0  0  0
 10 14  1  0  0  0  0
 10 22  1  0  0  0  0
 11 15  2  0  0  0  0
 11 23  1  0  0  0  0
 12 16  2  0  0  0  0
 12 24  1  0  0  0  0
 13 25  1  0  0  0  0
 14 26  1  0  0  0  0
 15 27  1  0  0  0  0
 16 28  1  0  0  0  0
 17 29  1  0  0  0  0
 17 30  1  0  0  0  0
 17 31  1  0  0  0  0
 18 32  1  0  0  0  0
 18 33  1  0  0  0  0
 18 34  1  0  0  0  0
 19 35  1  0  0  0  0
 19 36  1  0  0  0  0
 19 37  1  0  0  0  0
 20 38  1  0  0  0  0
 20 39  1  0  0  0  0
 20 40  1  0  0  0  0
M  END
> <PUBCHEM_COMPOUND_CID>
10298

> <PUBCHEM_CONFORMER_RMSD>
0.6

> <PUBCHEM_CONFORMER_DIVERSEORDER>
2
5
6
1
4
3

> <PUBCHEM_MMFF94_PARTIAL_CHARGES>
29
1 -0.84
10 -0.15
11 -0.15
12 -0.15
13 -0.15
14 -0.15
15 -0.15
16 -0.15
17 0.37
18 0.37
19 0.37
2 -0.84
20 0.37
21 0.15
22 0.15
23 0.15
24 0.15
25 0.15
26 0.15
27 0.15
28 0.15
3 -0.85
4 0.09
41 0.4
5 0.09
6 0.28
7 0.1
8 0.1
9 -0.15

> <PUBCHEM_EFFECTIVE_ROTOR_COUNT>
4

> <PUBCHEM_PHARMACOPHORE_FEATURES>
6
1 1 cation
1 2 cation
1 3 acceptor
1 3 donor
6 4 7 9 11 13 15 rings
6 5 8 10 12 14 16 rings

> <PUBCHEM_HEAVY_ATOM_COUNT>
20

> <PUBCHEM_ATOM_DEF_STEREO_COUNT>
0

> <PUBCHEM_ATOM_UDEF_STEREO_COUNT>
0

> <PUBCHEM_BOND_DEF_STEREO_COUNT>
0

> <PUBCHEM_BOND_UDEF_STEREO_COUNT>
0

> <PUBCHEM_ISOTOPIC_ATOM_COUNT>
0

> <PUBCHEM_COMPONENT_COUNT>
1

> <PUBCHEM_CACTVS_TAUTO_COUNT>
1

> <PUBCHEM_CONFORMER_ID>
0000283A00000002

> <PUBCHEM_MMFF94_ENERGY>
98.6532

> <PUBCHEM_FEATURE_SELFOVERLAP>
30.446

> <PUBCHEM_SHAPE_FINGERPRINT>
10354089 29 13840265879538760010
11046707 91 18342177794946546980
11578080 2 17774461420223409252
11796584 16 18194684989260924558
12236239 1 17846497053945001252
12403259 118 5472853792511261635
12596602 18 17240481424802918410
12633257 1 16298392322645913286
12892183 10 16660633111396456497
13288520 33 18412826910251920661
13551218 46 18187926217822532159
13675066 3 17968375642189399457
13685833 64 18413106151956550291
13862211 1 18334858282486409959
13911987 19 14835539459006686894
14178342 30 18115011035111759233
1420 369 18412261748649077622
14251752 14 17704079525181963965
14341114 176 17458346347206607058
14576447 43 17632579374981012794
15042514 8 18337950207535687333
15188451 53 17677056737986463839
15352361 1 18411417306396638647
15885798 251 18410292497617250085
17492 89 18123468272774224019
17804303 29 18259982682331267361
17834072 32 9223225247974174630
1813 80 18060697325515896036
18222031 100 18272653441402567080
19141452 34 17895198774915300727
193927 3 18272080587185911715
19784866 240 18131068238282713911
200 152 16773794835580046044
20028762 73 18115027390347983135
20281389 69 8430317926471470222
20374829 77 18342177765129468387
20388580 30 17988921150446238324
21267235 1 18411411821728578947
21637258 2 17989496225071061482
221357 26 14045745927967806118
22224240 67 16877954815064346886
22646028 28 18343865506650747673
22950370 63 18412820296181665372
23227448 37 10015570697718342379
23402539 116 18131073783344144276
23402655 69 12535350103468664376
23559900 14 18340492141180319873
26918003 58 17821729433869709457
270888 7 8430321229296273491
2916195 48 9871456613153565366
29717793 49 17989204854099200575
3004659 81 18060133245885920318
312425 54 18114176496800698010
335352 9 18411699886097537285
34797466 226 12895065245280505059
351380 3 18131072640424037787
38570 142 14274874131881285088
4325135 7 18342739590508612836
4340502 62 4678828272442261509
465052 167 18268982112554607335
5104073 3 18189042115451571697
559249 180 18342741853766083891
76465 3 18341049623444811149
7970288 3 18341332210565785987

> <PUBCHEM_SHAPE_MULTIPOLES>
396.65
13.36
2.18
1.07
0.61
0.09
-0.02
-9.74
-2.31
1.06
0.15
-1.19
-0.01
0.35

> <PUBCHEM_SHAPE_SELFOVERLAP>
839.568

> <PUBCHEM_SHAPE_VOLUME>
223.6

> <PUBCHEM_COORDINATE_TYPE>
2
5
10

$$$$

