12240
  -OEChem-06261206422D

 24 23  0     0  0  0  0  0  0999 V2000
    2.5369   -0.5000    0.0000 O   0  0  0  0  0  0  0  0  0  0  0  0
    3.4030    0.0000    0.0000 C   0  0  0  0  0  0  0  0  0  0  0  0
    4.2690    0.5000    0.0000 C   0  0  0  0  0  0  0  0  0  0  0  0
    5.1350    0.0000    0.0000 C   0  0  0  0  0  0  0  0  0  0  0  0
    6.0010    0.5000    0.0000 C   0  0  0  0  0  0  0  0  0  0  0  0
    2.9030    0.8660    0.0000 C   0  0  0  0  0  0  0  0  0  0  0  0
    3.9030   -0.8660    0.0000 C   0  0  0  0  0  0  0  0  0  0  0  0
    6.8671    0.0000    0.0000 C   0  0  0  0  0  0  0  0  0  0  0  0
    4.6675    0.9749    0.0000 H   0  0  0  0  0  0  0  0  0  0  0  0
    3.8705    0.9749    0.0000 H   0  0  0  0  0  0  0  0  0  0  0  0
    4.7365   -0.4749    0.0000 H   0  0  0  0  0  0  0  0  0  0  0  0
    5.5335   -0.4749    0.0000 H   0  0  0  0  0  0  0  0  0  0  0  0
    6.3996    0.9749    0.0000 H   0  0  0  0  0  0  0  0  0  0  0  0
    5.6025    0.9749    0.0000 H   0  0  0  0  0  0  0  0  0  0  0  0
    3.4399    1.1760    0.0000 H   0  0  0  0  0  0  0  0  0  0  0  0
    2.5930    1.4030    0.0000 H   0  0  0  0  0  0  0  0  0  0  0  0
    2.3660    0.5560    0.0000 H   0  0  0  0  0  0  0  0  0  0  0  0
    3.3660   -1.1760    0.0000 H   0  0  0  0  0  0  0  0  0  0  0  0
    4.2130   -1.4030    0.0000 H   0  0  0  0  0  0  0  0  0  0  0  0
    4.4399   -0.5560    0.0000 H   0  0  0  0  0  0  0  0  0  0  0  0
    6.5571   -0.5369    0.0000 H   0  0  0  0  0  0  0  0  0  0  0  0
    7.4040   -0.3100    0.0000 H   0  0  0  0  0  0  0  0  0  0  0  0
    7.1771    0.5369    0.0000 H   0  0  0  0  0  0  0  0  0  0  0  0
    2.0000   -0.1900    0.0000 H   0  0  0  0  0  0  0  0  0  0  0  0
  1  2  1  0  0  0  0
  1 24  1  0  0  0  0
  2  3  1  0  0  0  0
  2  6  1  0  0  0  0
  2  7  1  0  0  0  0
  3  4  1  0  0  0  0
  3  9  1  0  0  0  0
  3 10  1  0  0  0  0
  4  5  1  0  0  0  0
  4 11  1  0  0  0  0
  4 12  1  0  0  0  0
  5  8  1  0  0  0  0
  5 13  1  0  0  0  0
  5 14  1  0  0  0  0
  6 15  1  0  0  0  0
  6 16  1  0  0  0  0
  6 17  1  0  0  0  0
  7 18  1  0  0  0  0
  7 19  1  0  0  0  0
  7 20  1  0  0  0  0
  8 21  1  0  0  0  0
  8 22  1  0  0  0  0
  8 23  1  0  0  0  0
M  END
> <PUBCHEM_COMPOUND_CID>
12240

> <PUBCHEM_COMPOUND_CANONICALIZED>
1

> <PUBCHEM_CACTVS_COMPLEXITY>
57.4

> <PUBCHEM_CACTVS_HBOND_ACCEPTOR>
1

> <PUBCHEM_CACTVS_HBOND_DONOR>
1

> <PUBCHEM_CACTVS_ROTATABLE_BOND>
3

> <PUBCHEM_CACTVS_SUBSKEYS>
AAADceBgIAAAAAAAAAAAAAAAAAAAAAAAAAAAAAAAAAAAAAAAAAAAGgAACAAADESAgAACAAAAAgAAAAAAAAAAAAAAAAAAAAAAAAAAAAIAAAAAQAAEAAAAAAGAAAAMAAAAAAAAAAAAAAAAAAAAAAAAAAAAAA==

> <PUBCHEM_IUPAC_OPENEYE_NAME>
2-methylhexan-2-ol

> <PUBCHEM_IUPAC_CAS_NAME>
2-methyl-2-hexanol

> <PUBCHEM_IUPAC_NAME>
2-methylhexan-2-ol

> <PUBCHEM_IUPAC_SYSTEMATIC_NAME>
2-methylhexan-2-ol

> <PUBCHEM_IUPAC_TRADITIONAL_NAME>
2-methylhexan-2-ol

> <PUBCHEM_IUPAC_INCHI>
InChI=1S/C7H16O/c1-4-5-6-7(2,3)8/h8H,4-6H2,1-3H3

> <PUBCHEM_IUPAC_INCHIKEY>
KRIMXCDMVRMCTC-UHFFFAOYSA-N

> <PUBCHEM_XLOGP3_AA>
2

> <PUBCHEM_EXACT_MASS>
116.120115

> <PUBCHEM_MOLECULAR_FORMULA>
C7H16O

> <PUBCHEM_MOLECULAR_WEIGHT>
116.20134

> <PUBCHEM_OPENEYE_CAN_SMILES>
CCCCC(C)(C)O

> <PUBCHEM_OPENEYE_ISO_SMILES>
CCCCC(C)(C)O

> <PUBCHEM_CACTVS_TPSA>
20.2

> <PUBCHEM_MONOISOTOPIC_WEIGHT>
116.120115

> <PUBCHEM_TOTAL_CHARGE>
0

> <PUBCHEM_HEAVY_ATOM_COUNT>
8

> <PUBCHEM_ATOM_DEF_STEREO_COUNT>
0

> <PUBCHEM_ATOM_UDEF_STEREO_COUNT>
0

> <PUBCHEM_BOND_DEF_STEREO_COUNT>
0

> <PUBCHEM_BOND_UDEF_STEREO_COUNT>
0

> <PUBCHEM_ISOTOPIC_ATOM_COUNT>
0

> <PUBCHEM_COMPONENT_COUNT>
1

> <PUBCHEM_CACTVS_TAUTO_COUNT>
1

> <PUBCHEM_COORDINATE_TYPE>
1
5
255

$$$$

