4809
  -OEChem-06261200213D

 83 86  0     1  0  0  0  0  0999 V2000
    7.2900   -0.1670   -2.2995 O   0  0  0  0  0  0  0  0  0  0  0  0
    1.9357    6.7109   -0.4650 O   0  0  0  0  0  0  0  0  0  0  0  0
    0.5317    5.9988    1.1693 O   0  0  0  0  0  0  0  0  0  0  0  0
    1.1323   -2.8366    2.4859 O   0  0  0  0  0  0  0  0  0  0  0  0
    0.7613   -0.7717    3.3568 O   0  0  0  0  0  0  0  0  0  0  0  0
   -8.2964    0.1733    1.0021 O   0  0  0  0  0  0  0  0  0  0  0  0
    5.3649   -0.4317   -1.0058 N   0  0  0  0  0  0  0  0  0  0  0  0
    1.8518   -0.1033   -0.5670 N   0  0  0  0  0  0  0  0  0  0  0  0
   -2.2808    0.9593   -2.0379 N   0  0  0  0  0  0  0  0  0  0  0  0
   -6.5081    0.7366   -0.3763 N   0  0  0  0  0  0  0  0  0  0  0  0
    5.7816   -2.5027    0.0067 C   0  0  1  0  0  0  0  0  0  0  0  0
    7.0532   -2.0291   -0.7407 C   0  0  1  0  0  0  0  0  0  0  0  0
    4.8488   -1.3287   -0.1169 C   0  0  0  0  0  0  0  0  0  0  0  0
    5.1947   -3.7559   -0.6437 C   0  0  0  0  0  0  0  0  0  0  0  0
    6.6187   -0.7748   -1.4793 C   0  0  0  0  0  0  0  0  0  0  0  0
    8.1866   -1.6823    0.2185 C   0  0  0  0  0  0  0  0  0  0  0  0
    3.6875   -1.1531    0.5199 C   0  0  0  0  0  0  0  0  0  0  0  0
    2.8407   -0.0419    0.3798 C   0  0  0  0  0  0  0  0  0  0  0  0
    6.1230   -4.9440   -0.4882 C   0  0  0  0  0  0  0  0  0  0  0  0
    2.7535    1.1840    1.0021 C   0  0  0  0  0  0  0  0  0  0  0  0
    1.6742    1.8839    0.4086 C   0  0  0  0  0  0  0  0  0  0  0  0
    1.1559    1.0621   -0.5401 C   0  0  0  0  0  0  0  0  0  0  0  0
    1.2139    3.2437    0.7619 C   0  0  0  0  0  0  0  0  0  0  0  0
    0.0717    1.1907   -1.4675 C   0  0  0  0  0  0  0  0  0  0  0  0
   -1.1975    0.8625   -1.2014 C   0  0  0  0  0  0  0  0  0  0  0  0
   -1.7177    0.3197    0.0598 C   0  0  0  0  0  0  0  0  0  0  0  0
    3.6250    1.6785    2.0888 C   0  0  0  0  0  0  0  0  0  0  0  0
   -3.0507    0.1232   -0.0797 C   0  0  0  0  0  0  0  0  0  0  0  0
   -3.4374    0.5324   -1.4358 C   0  0  0  0  0  0  0  0  0  0  0  0
    1.8913    4.3747   -0.0373 C   0  0  0  0  0  0  0  0  0  0  0  0
   -0.8511    0.0614    1.2436 C   0  0  0  0  0  0  0  0  0  0  0  0
   -4.0286   -0.4075    0.9108 C   0  0  0  0  0  0  0  0  0  0  0  0
   -0.2684   -1.3472    1.2487 C   0  0  0  0  0  0  0  0  0  0  0  0
   -4.6662    0.4931   -1.9629 C   0  0  0  0  0  0  0  0  0  0  0  0
   -5.7668   -0.0001   -1.1424 C   0  0  0  0  0  0  0  0  0  0  0  0
    1.3721    5.7520    0.3160 C   0  0  0  0  0  0  0  0  0  0  0  0
   -6.1153   -1.4244   -1.1371 C   0  0  0  0  0  0  0  0  0  0  0  0
   -7.1480   -1.4866   -0.2876 C   0  0  0  0  0  0  0  0  0  0  0  0
    0.5754   -1.6004    2.4747 C   0  0  0  0  0  0  0  0  0  0  0  0
   -7.9630   -2.6422    0.1600 C   0  0  0  0  0  0  0  0  0  0  0  0
   -7.4137   -0.1146    0.2088 C   0  0  0  0  0  0  0  0  0  0  0  0
   -5.4384   -2.4882   -1.9138 C   0  0  0  0  0  0  0  0  0  0  0  0
   -7.3875   -3.3067    1.4030 C   0  0  0  0  0  0  0  0  0  0  0  0
    5.9976   -2.7033    1.0637 H   0  0  0  0  0  0  0  0  0  0  0  0
    7.4072   -2.7462   -1.4872 H   0  0  0  0  0  0  0  0  0  0  0  0
    4.9908   -3.5889   -1.7089 H   0  0  0  0  0  0  0  0  0  0  0  0
    4.2340   -4.0036   -0.1751 H   0  0  0  0  0  0  0  0  0  0  0  0
    4.8753    0.4083   -1.2931 H   0  0  0  0  0  0  0  0  0  0  0  0
    8.5014   -2.5672    0.7810 H   0  0  0  0  0  0  0  0  0  0  0  0
    7.8873   -0.9081    0.9339 H   0  0  0  0  0  0  0  0  0  0  0  0
    9.0554   -1.3017   -0.3293 H   0  0  0  0  0  0  0  0  0  0  0  0
    3.3667   -1.9261    1.2129 H   0  0  0  0  0  0  0  0  0  0  0  0
    5.6361   -5.8474   -0.8707 H   0  0  0  0  0  0  0  0  0  0  0  0
    6.3663   -5.1193    0.5648 H   0  0  0  0  0  0  0  0  0  0  0  0
    7.0585   -4.8242   -1.0405 H   0  0  0  0  0  0  0  0  0  0  0  0
    1.6897   -0.8791   -1.1968 H   0  0  0  0  0  0  0  0  0  0  0  0
    0.1270    3.3146    0.6212 H   0  0  0  0  0  0  0  0  0  0  0  0
    1.3710    3.4220    1.8337 H   0  0  0  0  0  0  0  0  0  0  0  0
    0.3202    1.5848   -2.4502 H   0  0  0  0  0  0  0  0  0  0  0  0
    4.4517    0.9925    2.2986 H   0  0  0  0  0  0  0  0  0  0  0  0
    3.0502    1.7996    3.0129 H   0  0  0  0  0  0  0  0  0  0  0  0
    4.0606    2.6475    1.8248 H   0  0  0  0  0  0  0  0  0  0  0  0
   -2.2325    1.3036   -2.9848 H   0  0  0  0  0  0  0  0  0  0  0  0
    1.7209    4.2150   -1.1087 H   0  0  0  0  0  0  0  0  0  0  0  0
    2.9715    4.3621    0.1470 H   0  0  0  0  0  0  0  0  0  0  0  0
   -0.1591    0.8543    1.4958 H   0  0  0  0  0  0  0  0  0  0  0  0
   -1.5048    0.1124    2.1281 H   0  0  0  0  0  0  0  0  0  0  0  0
   -4.7790    0.3257    1.2032 H   0  0  0  0  0  0  0  0  0  0  0  0
   -4.4308   -1.3795    0.6354 H   0  0  0  0  0  0  0  0  0  0  0  0
   -3.5110   -0.6211    1.8546 H   0  0  0  0  0  0  0  0  0  0  0  0
    0.2860   -1.6098    0.3515 H   0  0  0  0  0  0  0  0  0  0  0  0
   -1.1006   -2.0629    1.3054 H   0  0  0  0  0  0  0  0  0  0  0  0
   -4.8756    0.8045   -2.9789 H   0  0  0  0  0  0  0  0  0  0  0  0
   -8.9939   -2.3258    0.3571 H   0  0  0  0  0  0  0  0  0  0  0  0
   -8.0283   -3.3866   -0.6423 H   0  0  0  0  0  0  0  0  0  0  0  0
   -5.5115   -2.2846   -2.9867 H   0  0  0  0  0  0  0  0  0  0  0  0
   -5.8841   -3.4706   -1.7312 H   0  0  0  0  0  0  0  0  0  0  0  0
   -4.3795   -2.5533   -1.6455 H   0  0  0  0  0  0  0  0  0  0  0  0
    1.5927    7.6046   -0.2508 H   0  0  0  0  0  0  0  0  0  0  0  0
   -7.3454   -2.6057    2.2434 H   0  0  0  0  0  0  0  0  0  0  0  0
   -6.3745   -3.6808    1.2200 H   0  0  0  0  0  0  0  0  0  0  0  0
   -8.0120   -4.1548    1.7011 H   0  0  0  0  0  0  0  0  0  0  0  0
    1.6901   -2.9796    3.2800 H   0  0  0  0  0  0  0  0  0  0  0  0
  1 15  2  0  0  0  0
  2 36  1  0  0  0  0
  2 79  1  0  0  0  0
  3 36  2  0  0  0  0
  4 39  1  0  0  0  0
  4 83  1  0  0  0  0
  5 39  2  0  0  0  0
  6 41  2  0  0  0  0
  7 13  1  0  0  0  0
  7 15  1  0  0  0  0
  7 48  1  0  0  0  0
  8 18  1  0  0  0  0
  8 22  1  0  0  0  0
  8 56  1  0  0  0  0
  9 25  1  0  0  0  0
  9 29  1  0  0  0  0
  9 63  1  0  0  0  0
 10 35  2  0  0  0  0
 10 41  1  0  0  0  0
 11 12  1  0  0  0  0
 11 13  1  0  0  0  0
 11 14  1  0  0  0  0
 11 44  1  0  0  0  0
 12 15  1  0  0  0  0
 12 16  1  0  0  0  0
 12 45  1  0  0  0  0
 13 17  2  0  0  0  0
 14 19  1  0  0  0  0
 14 46  1  0  0  0  0
 14 47  1  0  0  0  0
 16 49  1  0  0  0  0
 16 50  1  0  0  0  0
 16 51  1  0  0  0  0
 17 18  1  0  0  0  0
 17 52  1  0  0  0  0
 18 20  2  0  0  0  0
 19 53  1  0  0  0  0
 19 54  1  0  0  0  0
 19 55  1  0  0  0  0
 20 21  1  0  0  0  0
 20 27  1  0  0  0  0
 21 22  2  0  0  0  0
 21 23  1  0  0  0  0
 22 24  1  0  0  0  0
 23 30  1  0  0  0  0
 23 57  1  0  0  0  0
 23 58  1  0  0  0  0
 24 25  2  0  0  0  0
 24 59  1  0  0  0  0
 25 26  1  0  0  0  0
 26 28  2  0  0  0  0
 26 31  1  0  0  0  0
 27 60  1  0  0  0  0
 27 61  1  0  0  0  0
 27 62  1  0  0  0  0
 28 29  1  0  0  0  0
 28 32  1  0  0  0  0
 29 34  2  0  0  0  0
 30 36  1  0  0  0  0
 30 64  1  0  0  0  0
 30 65  1  0  0  0  0
 31 33  1  0  0  0  0
 31 66  1  0  0  0  0
 31 67  1  0  0  0  0
 32 68  1  0  0  0  0
 32 69  1  0  0  0  0
 32 70  1  0  0  0  0
 33 39  1  0  0  0  0
 33 71  1  0  0  0  0
 33 72  1  0  0  0  0
 34 35  1  0  0  0  0
 34 73  1  0  0  0  0
 35 37  1  0  0  0  0
 37 38  2  0  0  0  0
 37 42  1  0  0  0  0
 38 40  1  0  0  0  0
 38 41  1  0  0  0  0
 40 43  1  0  0  0  0
 40 74  1  0  0  0  0
 40 75  1  0  0  0  0
 42 76  1  0  0  0  0
 42 77  1  0  0  0  0
 42 78  1  0  0  0  0
 43 80  1  0  0  0  0
 43 81  1  0  0  0  0
 43 82  1  0  0  0  0
M  END
> <PUBCHEM_COMPOUND_CID>
4809

> <PUBCHEM_CONFORMER_RMSD>
1.2

> <PUBCHEM_CONFORMER_DIVERSEORDER>
1
7
22
8
21
4
2
25
6
14
12
23
20
28
30
32
24
29
9
19
16
13
31
11
26
17
18
10
27
15
5
3

> <PUBCHEM_MMFF94_PARTIAL_CHARGES>
47
1 -0.57
10 -0.66
11 0.14
12 0.06
13 -0.03
15 0.57
17 -0.11
18 -0.2
2 -0.65
20 -0.18
21 -0.18
22 -0.2
23 0.18
24 -0.11
25 0.1
26 -0.14
27 0.18
28 -0.14
29 0.1
3 -0.57
30 0.06
31 0.14
32 0.14
33 0.06
34 -0.14
35 0.42
36 0.66
37 -0.12
38 -0.12
39 0.66
4 -0.65
40 0.14
41 0.77
42 0.14
48 0.37
5 -0.57
52 0.15
56 0.27
59 0.15
6 -0.57
63 0.4
7 -0.54
73 0.15
79 0.5
8 0.03
83 0.5
9 -0.6

> <PUBCHEM_EFFECTIVE_ROTOR_COUNT>
11.6

> <PUBCHEM_PHARMACOPHORE_FEATURES>
21
1 1 acceptor
1 10 acceptor
1 10 donor
1 19 hydrophobe
1 2 acceptor
1 3 acceptor
1 4 acceptor
1 43 hydrophobe
1 5 acceptor
1 6 acceptor
1 7 donor
1 8 cation
1 8 donor
1 9 cation
1 9 donor
3 2 3 36 anion
3 4 5 39 anion
5 10 35 37 38 41 rings
5 7 11 12 13 15 rings
5 8 18 20 21 22 rings
5 9 25 26 28 29 rings

> <PUBCHEM_HEAVY_ATOM_COUNT>
43

> <PUBCHEM_ATOM_DEF_STEREO_COUNT>
0

> <PUBCHEM_ATOM_UDEF_STEREO_COUNT>
2

> <PUBCHEM_BOND_DEF_STEREO_COUNT>
0

> <PUBCHEM_BOND_UDEF_STEREO_COUNT>
3

> <PUBCHEM_ISOTOPIC_ATOM_COUNT>
0

> <PUBCHEM_COMPONENT_COUNT>
1

> <PUBCHEM_CACTVS_TAUTO_COUNT>
84

> <PUBCHEM_CONFORMER_ID>
000012C900000001

> <PUBCHEM_MMFF94_ENERGY>
116.801

> <PUBCHEM_FEATURE_SELFOVERLAP>
106.723

> <PUBCHEM_SHAPE_FINGERPRINT>
10076449 9 18410008858515014734
10169797 241 17844816888893725971
117089 54 17971749137048482926
11991303 11 17617654806099683044
12166972 35 18187366510785515249
12422481 6 5761355726001574106
13690498 29 18271252715360445525
13782708 43 18201729435822000495
14068700 675 18113053856842559120
14150023 24 9727630601495739236
15324884 4 17344048681577992457
19301679 30 18117835723538716910
21814621 53 18259992561525818435
23559900 14 18338241453272547225
23569943 247 18193838377723831171
23729398 52 18267302037482185484
24771750 20 18127404550161105628
6004065 56 18411980243997778234
9962374 69 18187655639773801583

> <PUBCHEM_SHAPE_MULTIPOLES>
829.78
22.33
6.25
2.1
16.52
10.86
-0.75
-25.92
5.66
-8.08
-0.83
0.06
-0.62
1.78

> <PUBCHEM_SHAPE_SELFOVERLAP>
1786.413

> <PUBCHEM_SHAPE_VOLUME>
462.1

> <PUBCHEM_COORDINATE_TYPE>
2
5
10

$$$$

