11809
  -OEChem-06261206092D

 65 67  0     1  0  0  0  0  0999 V2000
   13.9336    4.8885    0.0000 Br  0  0  0  0  0  0  0  0  0  0  0  0
    1.4030    1.0369    0.0000 O   0  0  0  0  0  0  0  0  0  0  0  0
   10.5377    6.8885    0.0000 O   0  0  0  0  0  0  0  0  0  0  0  0
    8.8057    3.8885    0.0000 O   0  0  0  0  0  0  0  0  0  0  0  0
    2.2690    5.5369    0.0000 N   0  0  3  0  0  0  0  0  0  0  0  0
    4.8671    5.0369    0.0000 N   0  0  0  0  0  0  0  0  0  0  0  0
   10.5377    3.8885    0.0000 N   0  0  0  0  0  0  0  0  0  0  0  0
    9.6717    5.3885    0.0000 N   0  0  0  0  0  0  0  0  0  0  0  0
    1.4030    7.0369    0.0000 N   0  0  0  0  0  0  0  0  0  0  0  0
   12.3500    5.6932    0.0000 N   0  0  0  0  0  0  0  0  0  0  0  0
   12.3500    4.0837    0.0000 N   0  0  0  0  0  0  0  0  0  0  0  0
    3.1350    5.0369    0.0000 C   0  0  0  0  0  0  0  0  0  0  0  0
    4.0010    5.5369    0.0000 C   0  0  0  0  0  0  0  0  0  0  0  0
    1.4030    5.0369    0.0000 C   0  0  0  0  0  0  0  0  0  0  0  0
    1.4030    4.0369    0.0000 C   0  0  0  0  0  0  0  0  0  0  0  0
    2.2690    6.5369    0.0000 C   0  0  0  0  0  0  0  0  0  0  0  0
    5.7331    5.5369    0.0000 C   0  0  0  0  0  0  0  0  0  0  0  0
    4.8671    4.0369    0.0000 C   0  0  0  0  0  0  0  0  0  0  0  0
    0.5369    3.5369    0.0000 C   0  0  0  0  0  0  0  0  0  0  0  0
    2.2690    3.5369    0.0000 C   0  0  0  0  0  0  0  0  0  0  0  0
   11.4038    4.3885    0.0000 C   0  0  0  0  0  0  0  0  0  0  0  0
    3.1350    7.0369    0.0000 C   0  0  0  0  0  0  0  0  0  0  0  0
   11.4038    5.3885    0.0000 C   0  0  0  0  0  0  0  0  0  0  0  0
   10.5377    5.8885    0.0000 C   0  0  0  0  0  0  0  0  0  0  0  0
    9.6717    4.3885    0.0000 C   0  0  0  0  0  0  0  0  0  0  0  0
    0.5369    2.5369    0.0000 C   0  0  0  0  0  0  0  0  0  0  0  0
    2.2690    2.5369    0.0000 C   0  0  0  0  0  0  0  0  0  0  0  0
    1.4030    2.0369    0.0000 C   0  0  0  0  0  0  0  0  0  0  0  0
    3.1350    8.0369    0.0000 C   0  0  0  0  0  0  0  0  0  0  0  0
   10.5377    2.8885    0.0000 C   0  0  0  0  0  0  0  0  0  0  0  0
    1.4030    8.0369    0.0000 C   0  0  0  0  0  0  0  0  0  0  0  0
    8.8057    5.8885    0.0000 C   0  0  0  0  0  0  0  0  0  0  0  0
   12.9336    4.8885    0.0000 C   0  0  0  0  0  0  0  0  0  0  0  0
    2.2690    8.5369    0.0000 C   0  0  0  0  0  0  0  0  0  0  0  0
    0.5369    0.5369    0.0000 C   0  0  0  0  0  0  0  0  0  0  0  0
    2.7365    4.5620    0.0000 H   0  0  0  0  0  0  0  0  0  0  0  0
    3.5335    4.5620    0.0000 H   0  0  0  0  0  0  0  0  0  0  0  0
    4.3996    6.0119    0.0000 H   0  0  0  0  0  0  0  0  0  0  0  0
    3.6025    6.0119    0.0000 H   0  0  0  0  0  0  0  0  0  0  0  0
    1.1909    5.6195    0.0000 H   0  0  0  0  0  0  0  0  0  0  0  0
    0.7924    4.9293    0.0000 H   0  0  0  0  0  0  0  0  0  0  0  0
    6.0431    5.0000    0.0000 H   0  0  0  0  0  0  0  0  0  0  0  0
    6.2700    5.8469    0.0000 H   0  0  0  0  0  0  0  0  0  0  0  0
    5.4231    6.0739    0.0000 H   0  0  0  0  0  0  0  0  0  0  0  0
    4.2471    4.0369    0.0000 H   0  0  0  0  0  0  0  0  0  0  0  0
    4.8671    3.4169    0.0000 H   0  0  0  0  0  0  0  0  0  0  0  0
    5.4871    4.0369    0.0000 H   0  0  0  0  0  0  0  0  0  0  0  0
    0.0000    3.8469    0.0000 H   0  0  0  0  0  0  0  0  0  0  0  0
    2.8059    3.8469    0.0000 H   0  0  0  0  0  0  0  0  0  0  0  0
    3.6720    6.7269    0.0000 H   0  0  0  0  0  0  0  0  0  0  0  0
    0.0000    2.2269    0.0000 H   0  0  0  0  0  0  0  0  0  0  0  0
    2.8059    2.2269    0.0000 H   0  0  0  0  0  0  0  0  0  0  0  0
   12.5426    6.2825    0.0000 H   0  0  0  0  0  0  0  0  0  0  0  0
    3.6720    8.3469    0.0000 H   0  0  0  0  0  0  0  0  0  0  0  0
    9.9177    2.8885    0.0000 H   0  0  0  0  0  0  0  0  0  0  0  0
   10.5377    2.2685    0.0000 H   0  0  0  0  0  0  0  0  0  0  0  0
   11.1577    2.8885    0.0000 H   0  0  0  0  0  0  0  0  0  0  0  0
    9.1157    6.4254    0.0000 H   0  0  0  0  0  0  0  0  0  0  0  0
    8.2687    6.1985    0.0000 H   0  0  0  0  0  0  0  0  0  0  0  0
    8.4957    5.3515    0.0000 H   0  0  0  0  0  0  0  0  0  0  0  0
    0.8660    8.3469    0.0000 H   0  0  0  0  0  0  0  0  0  0  0  0
    2.2690    9.1569    0.0000 H   0  0  0  0  0  0  0  0  0  0  0  0
    0.2269    1.0739    0.0000 H   0  0  0  0  0  0  0  0  0  0  0  0
    0.0000    0.2269    0.0000 H   0  0  0  0  0  0  0  0  0  0  0  0
    0.8469    0.0000    0.0000 H   0  0  0  0  0  0  0  0  0  0  0  0
  1 33  1  0  0  0  0
  2 28  1  0  0  0  0
  2 35  1  0  0  0  0
  3 24  2  0  0  0  0
  4 25  2  0  0  0  0
  5 12  1  0  0  0  0
  5 14  1  0  0  0  0
  5 16  1  0  0  0  0
  6 13  1  0  0  0  0
  6 17  1  0  0  0  0
  6 18  1  0  0  0  0
  7 21  1  0  0  0  0
  7 25  1  0  0  0  0
  7 30  1  0  0  0  0
  8 24  1  0  0  0  0
  8 25  1  0  0  0  0
  8 32  1  0  0  0  0
  9 16  1  0  0  0  0
  9 31  2  0  0  0  0
 10 23  1  0  0  0  0
 10 33  1  0  0  0  0
 10 53  1  0  0  0  0
 11 21  1  0  0  0  0
 11 33  2  0  0  0  0
 12 13  1  0  0  0  0
 12 36  1  0  0  0  0
 12 37  1  0  0  0  0
 13 38  1  0  0  0  0
 13 39  1  0  0  0  0
 14 15  1  0  0  0  0
 14 40  1  0  0  0  0
 14 41  1  0  0  0  0
 15 19  2  0  0  0  0
 15 20  1  0  0  0  0
 16 22  2  0  0  0  0
 17 42  1  0  0  0  0
 17 43  1  0  0  0  0
 17 44  1  0  0  0  0
 18 45  1  0  0  0  0
 18 46  1  0  0  0  0
 18 47  1  0  0  0  0
 19 26  1  0  0  0  0
 19 48  1  0  0  0  0
 20 27  2  0  0  0  0
 20 49  1  0  0  0  0
 21 23  2  0  0  0  0
 22 29  1  0  0  0  0
 22 50  1  0  0  0  0
 23 24  1  0  0  0  0
 26 28  2  0  0  0  0
 26 51  1  0  0  0  0
 27 28  1  0  0  0  0
 27 52  1  0  0  0  0
 29 34  2  0  0  0  0
 29 54  1  0  0  0  0
 30 55  1  0  0  0  0
 30 56  1  0  0  0  0
 30 57  1  0  0  0  0
 31 34  1  0  0  0  0
 31 61  1  0  0  0  0
 32 58  1  0  0  0  0
 32 59  1  0  0  0  0
 32 60  1  0  0  0  0
 34 62  1  0  0  0  0
 35 63  1  0  0  0  0
 35 64  1  0  0  0  0
 35 65  1  0  0  0  0
M  END
> <PUBCHEM_COMPOUND_CID>
11809

> <PUBCHEM_COMPOUND_CANONICALIZED>
1

> <PUBCHEM_CACTVS_COMPLEXITY>
575

> <PUBCHEM_CACTVS_HBOND_ACCEPTOR>
7

> <PUBCHEM_CACTVS_HBOND_DONOR>
1

> <PUBCHEM_CACTVS_ROTATABLE_BOND>
7

> <PUBCHEM_CACTVS_SUBSKEYS>
AAADceB7sAAAEAAAAAAAAAAAAAAAAWAAAAA8WIAAAAAAAFgB8AAAHgBQAAAAHAzBngY/tpfJlACoAzd3dACCiC23MqAJ2SG+fNiMburE+buUMKhsxzPI6GeQ0AIOIAAAAAAAAABAAAAAAAAAAAAAAAAAAA==

> <PUBCHEM_IUPAC_OPENEYE_NAME>
8-bromo-1,3-dimethyl-7H-purine-2,6-dione; N'-[(4-methoxyphenyl)methyl]-N,N-dimethyl-N'-(2-pyridyl)ethane-1,2-diamine

> <PUBCHEM_IUPAC_CAS_NAME>
8-bromo-1,3-dimethyl-7H-purine-2,6-dione; N'-[(4-methoxyphenyl)methyl]-N,N-dimethyl-N'-(2-pyridinyl)ethane-1,2-diamine

> <PUBCHEM_IUPAC_NAME>
8-bromo-1,3-dimethyl-7H-purine-2,6-dione; N'-[(4-methoxyphenyl)methyl]-N,N-dimethyl-N'-pyridin-2-ylethane-1,2-diamine

> <PUBCHEM_IUPAC_SYSTEMATIC_NAME>
8-bromanyl-1,3-dimethyl-7H-purine-2,6-dione; N'-[(4-methoxyphenyl)methyl]-N,N-dimethyl-N'-pyridin-2-yl-ethane-1,2-diamine

> <PUBCHEM_IUPAC_TRADITIONAL_NAME>
8-bromo-1,3-dimethyl-7H-purine-2,6-quinone; dimethyl-[2-[p-anisyl(2-pyridyl)amino]ethyl]amine

> <PUBCHEM_IUPAC_INCHI>
InChI=1S/C17H23N3O.C7H7BrN4O2/c1-19(2)12-13-20(17-6-4-5-11-18-17)14-15-7-9-16(21-3)10-8-15;1-11-4-3(9-6(8)10-4)5(13)12(2)7(11)14/h4-11H,12-14H2,1-3H3;1-2H3,(H,9,10)

> <PUBCHEM_IUPAC_INCHIKEY>
XMOLCXIDFCGXAR-UHFFFAOYSA-N

> <PUBCHEM_EXACT_MASS>
543.15935

> <PUBCHEM_MOLECULAR_FORMULA>
C24H30BrN7O3

> <PUBCHEM_MOLECULAR_WEIGHT>
544.4441

> <PUBCHEM_OPENEYE_CAN_SMILES>
CN1C2=C(C(=O)N(C1=O)C)NC(=N2)Br.CN(C)CCN(CC1=CC=C(C=C1)OC)C2=CC=CC=N2

> <PUBCHEM_OPENEYE_ISO_SMILES>
CN1C2=C(C(=O)N(C1=O)C)NC(=N2)Br.CN(C)CCN(CC1=CC=C(C=C1)OC)C2=CC=CC=N2

> <PUBCHEM_CACTVS_TPSA>
97.9

> <PUBCHEM_MONOISOTOPIC_WEIGHT>
543.15935

> <PUBCHEM_TOTAL_CHARGE>
0

> <PUBCHEM_HEAVY_ATOM_COUNT>
35

> <PUBCHEM_ATOM_DEF_STEREO_COUNT>
0

> <PUBCHEM_ATOM_UDEF_STEREO_COUNT>
0

> <PUBCHEM_BOND_DEF_STEREO_COUNT>
0

> <PUBCHEM_BOND_UDEF_STEREO_COUNT>
0

> <PUBCHEM_ISOTOPIC_ATOM_COUNT>
0

> <PUBCHEM_COMPONENT_COUNT>
2

> <PUBCHEM_CACTVS_TAUTO_COUNT>
4

> <PUBCHEM_COORDINATE_TYPE>
1
5
255

> <PUBCHEM_BONDANNOTATIONS>
10  23  8
10  33  8
11  21  8
11  33  8
15  19  8
15  20  8
16  22  8
19  26  8
20  27  8
21  23  8
22  29  8
23  24  8
26  28  8
27  28  8
29  34  8
31  34  8
7  21  8
7  25  8
8  24  8
8  25  8
9  16  8
9  31  8

$$$$

