17395756
  -OEChem-06241222523D

 40 42  0     1  0  0  0  0  0999 V2000
    3.0211    0.8294   -0.0804 O   0  0  0  0  0  0  0  0  0  0  0  0
   -1.5930   -0.5152    1.6090 O   0  0  0  0  0  0  0  0  0  0  0  0
   -3.6113    2.2355    0.7674 O   0  5  0  0  0  0  0  0  0  0  0  0
   -3.9628    2.3734   -1.3952 O   0  0  0  0  0  0  0  0  0  0  0  0
    0.1936    0.0882    0.2581 N   0  0  0  0  0  0  0  0  0  0  0  0
   -3.9462    1.7201   -0.3253 N   0  3  0  0  0  0  0  0  0  0  0  0
    1.1773    0.2115    1.3292 C   0  0  1  0  0  0  0  0  0  0  0  0
    2.5360   -0.0499    0.8345 C   0  0  0  0  0  0  0  0  0  0  0  0
    4.5983   -0.7411    0.3067 C   0  0  0  0  0  0  0  0  0  0  0  0
    3.4617   -1.0305    1.1067 C   0  0  0  0  0  0  0  0  0  0  0  0
    1.0088    1.5794    2.0222 C   0  0  0  0  0  0  0  0  0  0  0  0
    4.2772    0.4110   -0.4038 C   0  0  0  0  0  0  0  0  0  0  0  0
   -1.9170   -0.3156   -0.7828 C   0  0  0  0  0  0  0  0  0  0  0  0
   -1.1160   -0.2684    0.5042 C   0  0  0  0  0  0  0  0  0  0  0  0
   -3.3696   -0.6500   -0.5697 C   0  0  0  0  0  0  0  0  0  0  0  0
    5.8613   -1.3244    0.1048 C   0  0  0  0  0  0  0  0  0  0  0  0
    5.1320    1.0328   -1.3122 C   0  0  0  0  0  0  0  0  0  0  0  0
   -4.3193    0.3480   -0.3520 C   0  0  0  0  0  0  0  0  0  0  0  0
   -3.7580   -1.9896   -0.5915 C   0  0  0  0  0  0  0  0  0  0  0  0
    6.7430   -0.7220   -0.8032 C   0  0  0  0  0  0  0  0  0  0  0  0
    6.3825    0.4358   -1.4975 C   0  0  0  0  0  0  0  0  0  0  0  0
   -5.6575    0.0065   -0.1557 C   0  0  0  0  0  0  0  0  0  0  0  0
   -5.0963   -2.3314   -0.3958 C   0  0  0  0  0  0  0  0  0  0  0  0
   -6.0459   -1.3332   -0.1777 C   0  0  0  0  0  0  0  0  0  0  0  0
    0.9319   -0.5541    2.0772 H   0  0  0  0  0  0  0  0  0  0  0  0
    0.4821    0.3095   -0.6911 H   0  0  0  0  0  0  0  0  0  0  0  0
    3.3360   -1.8539    1.7958 H   0  0  0  0  0  0  0  0  0  0  0  0
    1.7272    1.6894    2.8417 H   0  0  0  0  0  0  0  0  0  0  0  0
    1.1737    2.4024    1.3172 H   0  0  0  0  0  0  0  0  0  0  0  0
    0.0004    1.6929    2.4340 H   0  0  0  0  0  0  0  0  0  0  0  0
   -1.8012    0.6338   -1.3182 H   0  0  0  0  0  0  0  0  0  0  0  0
   -1.4622   -1.0740   -1.4345 H   0  0  0  0  0  0  0  0  0  0  0  0
    6.1555   -2.2238    0.6372 H   0  0  0  0  0  0  0  0  0  0  0  0
    4.8452    1.9303   -1.8469 H   0  0  0  0  0  0  0  0  0  0  0  0
   -3.0288   -2.7783   -0.7572 H   0  0  0  0  0  0  0  0  0  0  0  0
    7.7226   -1.1632   -0.9687 H   0  0  0  0  0  0  0  0  0  0  0  0
    7.0873    0.8811   -2.1954 H   0  0  0  0  0  0  0  0  0  0  0  0
   -6.4092    0.7733    0.0155 H   0  0  0  0  0  0  0  0  0  0  0  0
   -5.3986   -3.3744   -0.4121 H   0  0  0  0  0  0  0  0  0  0  0  0
   -7.0878   -1.5992   -0.0249 H   0  0  0  0  0  0  0  0  0  0  0  0
  1  8  1  0  0  0  0
  1 12  1  0  0  0  0
  2 14  2  0  0  0  0
  3  6  1  0  0  0  0
  4  6  2  0  0  0  0
  5  7  1  0  0  0  0
  5 14  1  0  0  0  0
  5 26  1  0  0  0  0
  6 18  1  0  0  0  0
  7  8  1  0  0  0  0
  7 11  1  0  0  0  0
  7 25  1  0  0  0  0
  8 10  2  0  0  0  0
  9 10  1  0  0  0  0
  9 12  1  0  0  0  0
  9 16  2  0  0  0  0
 10 27  1  0  0  0  0
 11 28  1  0  0  0  0
 11 29  1  0  0  0  0
 11 30  1  0  0  0  0
 12 17  2  0  0  0  0
 13 14  1  0  0  0  0
 13 15  1  0  0  0  0
 13 31  1  0  0  0  0
 13 32  1  0  0  0  0
 15 18  1  0  0  0  0
 15 19  2  0  0  0  0
 16 20  1  0  0  0  0
 16 33  1  0  0  0  0
 17 21  1  0  0  0  0
 17 34  1  0  0  0  0
 18 22  2  0  0  0  0
 19 23  1  0  0  0  0
 19 35  1  0  0  0  0
 20 21  2  0  0  0  0
 20 36  1  0  0  0  0
 21 37  1  0  0  0  0
 22 24  1  0  0  0  0
 22 38  1  0  0  0  0
 23 24  2  0  0  0  0
 23 39  1  0  0  0  0
 24 40  1  0  0  0  0
M  CHG  2   3  -1   6   1
M  END
> <PUBCHEM_COMPOUND_CID>
17395756

> <PUBCHEM_CONFORMER_RMSD>
0.8

> <PUBCHEM_CONFORMER_DIVERSEORDER>
1
38
151
217
232
108
142
152
134
155
290
251
183
122
133
22
66
265
50
273
36
182
285
245
104
90
99
270
214
41
261
276
268
184
125
180
32
266
269
143
246
72
3
132
165
129
283
23
88
31
196
264
211
80
159
279
205
103
63
10
170
287
235
216
84
277
162
226
8
186
148
247
138
70
137
160
110
2
255
258
284
192
9
93
14
221
150
85
127
199
91
130
42
120
74
241
54
24
267
109
128
82
168
195
260
69
118
13
16
11
45
288
203
153
114
239
156
65
275
215
256
212
119
201
53
83
225
98
44
244
263
292
189
95
233
204
185
207
25
172
249
163
123
262
250
117
33
89
187
135
144
286
40
208
253
161
252
57
191
209
5
281
206
178
274
124
289
147
97
39
96
34
58
167
139
21
37
56
177
176
236
227
166
77
51
291
47
60
293
158
64
28
198
131
257
169
126
17
112
75
113
193
202
71
154
35
219
145
78
213
102
26
27
282
194
67
254
188
238
224
6
190
106
62
87
171
46
121
149
197
229
242
175
68
92
164
101
157
243
81
4
228
278
174
43
76
248
220
259
59
61
136
173
223
230
29
55
231
218
15
49
271
272
222
280
100
48
107
181
7
210
116
19
179
234
200
105
30
18
237
73
140
240
146
12
115
52
141
86
111
79
20
94

> <PUBCHEM_MMFF94_PARTIAL_CHARGES>
32
1 -0.28
10 -0.15
12 0.14
13 0.2
14 0.57
15 -0.14
16 -0.15
17 -0.15
18 0.13
19 -0.15
2 -0.57
20 -0.15
21 -0.15
22 -0.15
23 -0.15
24 -0.15
26 0.37
27 0.15
3 -0.52
33 0.15
34 0.15
35 0.15
36 0.15
37 0.15
38 0.15
39 0.15
4 -0.52
40 0.15
5 -0.73
6 0.91
7 0.48
8 -0.04

> <PUBCHEM_EFFECTIVE_ROTOR_COUNT>
6

> <PUBCHEM_PHARMACOPHORE_FEATURES>
9
1 1 acceptor
1 2 acceptor
1 3 acceptor
1 3 anion
1 4 acceptor
1 5 donor
5 1 8 9 10 12 rings
6 15 18 19 22 23 24 rings
6 9 12 16 17 20 21 rings

> <PUBCHEM_HEAVY_ATOM_COUNT>
24

> <PUBCHEM_ATOM_DEF_STEREO_COUNT>
0

> <PUBCHEM_ATOM_UDEF_STEREO_COUNT>
1

> <PUBCHEM_BOND_DEF_STEREO_COUNT>
0

> <PUBCHEM_BOND_UDEF_STEREO_COUNT>
0

> <PUBCHEM_ISOTOPIC_ATOM_COUNT>
0

> <PUBCHEM_COMPONENT_COUNT>
1

> <PUBCHEM_CACTVS_TAUTO_COUNT>
2

> <PUBCHEM_CONFORMER_ID>
0109702C00000001

> <PUBCHEM_MMFF94_ENERGY>
53.2053

> <PUBCHEM_FEATURE_SELFOVERLAP>
45.853

> <PUBCHEM_SHAPE_FINGERPRINT>
10299344 5 18341892987143974823
10595046 47 18202567276060917422
10638233 991 17775564226211621044
10670039 82 17703796946061340508
10693767 8 18199466753211021242
11128504 68 17632301155035760686
11524674 6 16515684412567474903
12107183 9 17623302971070199507
12166972 35 18334572417499468568
12236239 1 17988926677936915447
12730499 353 16200148811922093850
13668630 136 17749101180254211262
13673619 4 18114461146444055163
13685833 64 16732980912475285722
13690498 29 18335141930194541015
13782708 43 17459760224766222423
13914758 101 13984653781354253011
14251752 14 18408605894114364294
14528608 73 18060420196961679366
14681490 219 17704355455240306284
14856354 85 18410851024108070647
15183329 4 18272650164769690798
15575132 122 16917082078826417879
17780758 139 7492999665987927565
17844677 252 18261110746869952952
17857418 61 5833988339240778524
18222031 100 16732982016571862568
20567600 254 13830137174360770506
21033650 10 18197194035829593644
21150785 3 18060135410291026286
21859007 373 5904679231936264435
22061861 79 17095243618248534444
221357 26 18342742888125676237
2297311 6 18335421236660672471
2303208 19 17748828479595031674
23081809 10 17775007916414594258
23198884 109 17988922271036887882
23522609 53 18266995363098548345
23536379 177 18342458153569182486
23559900 14 18189908526066226785
2838139 119 17274819169207507972
3004659 81 18410012144202016522
314173 85 16008745810283507786
44062 13 17822860775331935031
465052 167 17313098627857863030
497634 4 17988929972509342663
5265222 85 18263360296173802006
531348 171 18269838769013469715
53794403 172 14763203555135137302
542803 24 17988925578435966862
543368 44 17561080280825227269
8863177 126 17896885335368539607

> <PUBCHEM_SHAPE_MULTIPOLES>
460.47
18.08
1.94
1.41
7.84
0.34
0.23
-4.7
-6.76
-2.77
-0.1
1.12
0.49
-0.27

> <PUBCHEM_SHAPE_SELFOVERLAP>
1001.351

> <PUBCHEM_SHAPE_VOLUME>
252.3

> <PUBCHEM_COORDINATE_TYPE>
2
5
10

$$$$

