583326
  -OEChem-06241222453D

 37 39  0     0  0  0  0  0  0999 V2000
    5.2143    1.9909    1.4263 F   0  0  0  0  0  0  0  0  0  0  0  0
   -6.1565    0.9920   -0.3398 O   0  0  0  0  0  0  0  0  0  0  0  0
    2.2612   -2.5277    0.6630 O   0  0  0  0  0  0  0  0  0  0  0  0
   -3.5005    0.1579    0.0460 N   0  0  0  0  0  0  0  0  0  0  0  0
   -4.4007   -0.6092   -0.8260 C   0  0  0  0  0  0  0  0  0  0  0  0
   -3.8725    1.5626    0.2466 C   0  0  0  0  0  0  0  0  0  0  0  0
   -5.8453   -0.4002   -0.3860 C   0  0  0  0  0  0  0  0  0  0  0  0
   -5.3456    1.6559    0.6288 C   0  0  0  0  0  0  0  0  0  0  0  0
   -2.1561   -0.2230    0.1056 C   0  0  0  0  0  0  0  0  0  0  0  0
   -1.1309    0.6707   -0.2641 C   0  0  0  0  0  0  0  0  0  0  0  0
   -1.7855   -1.5130    0.5357 C   0  0  0  0  0  0  0  0  0  0  0  0
    0.5528   -0.9921    0.2228 C   0  0  0  0  0  0  0  0  0  0  0  0
    0.2099    0.2901   -0.2061 C   0  0  0  0  0  0  0  0  0  0  0  0
   -0.4449   -1.8936    0.5937 C   0  0  0  0  0  0  0  0  0  0  0  0
    1.9507   -1.3893    0.2821 C   0  0  0  0  0  0  0  0  0  0  0  0
    3.0620   -0.4681   -0.1034 C   0  0  0  0  0  0  0  0  0  0  0  0
    3.6161    0.3355    0.8655 C   0  0  0  0  0  0  0  0  0  0  0  0
    3.4864   -0.4609   -1.4117 C   0  0  0  0  0  0  0  0  0  0  0  0
    4.6537    1.1954    0.5056 C   0  0  0  0  0  0  0  0  0  0  0  0
    4.5240    0.3989   -1.7717 C   0  0  0  0  0  0  0  0  0  0  0  0
    5.1076    1.2271   -0.8129 C   0  0  0  0  0  0  0  0  0  0  0  0
   -4.1784   -1.6817   -0.8080 H   0  0  0  0  0  0  0  0  0  0  0  0
   -4.2713   -0.2562   -1.8565 H   0  0  0  0  0  0  0  0  0  0  0  0
   -3.7038    2.1162   -0.6852 H   0  0  0  0  0  0  0  0  0  0  0  0
   -3.2734    2.0227    1.0412 H   0  0  0  0  0  0  0  0  0  0  0  0
   -6.5255   -0.8732   -1.1014 H   0  0  0  0  0  0  0  0  0  0  0  0
   -6.0325   -0.8487    0.5972 H   0  0  0  0  0  0  0  0  0  0  0  0
   -5.5298    1.2200    1.6183 H   0  0  0  0  0  0  0  0  0  0  0  0
   -5.6559    2.7049    0.6661 H   0  0  0  0  0  0  0  0  0  0  0  0
   -1.3613    1.6735   -0.6154 H   0  0  0  0  0  0  0  0  0  0  0  0
   -2.5458   -2.2286    0.8409 H   0  0  0  0  0  0  0  0  0  0  0  0
    0.9536    1.0218   -0.5065 H   0  0  0  0  0  0  0  0  0  0  0  0
   -0.2042   -2.8973    0.9337 H   0  0  0  0  0  0  0  0  0  0  0  0
    3.2660    0.3139    1.8929 H   0  0  0  0  0  0  0  0  0  0  0  0
    3.0348   -1.1042   -2.1607 H   0  0  0  0  0  0  0  0  0  0  0  0
    4.8774    0.4238   -2.7984 H   0  0  0  0  0  0  0  0  0  0  0  0
    5.9155    1.8967   -1.0927 H   0  0  0  0  0  0  0  0  0  0  0  0
  1 19  1  0  0  0  0
  2  7  1  0  0  0  0
  2  8  1  0  0  0  0
  3 15  2  0  0  0  0
  4  5  1  0  0  0  0
  4  6  1  0  0  0  0
  4  9  1  0  0  0  0
  5  7  1  0  0  0  0
  5 22  1  0  0  0  0
  5 23  1  0  0  0  0
  6  8  1  0  0  0  0
  6 24  1  0  0  0  0
  6 25  1  0  0  0  0
  7 26  1  0  0  0  0
  7 27  1  0  0  0  0
  8 28  1  0  0  0  0
  8 29  1  0  0  0  0
  9 10  2  0  0  0  0
  9 11  1  0  0  0  0
 10 13  1  0  0  0  0
 10 30  1  0  0  0  0
 11 14  2  0  0  0  0
 11 31  1  0  0  0  0
 12 13  2  0  0  0  0
 12 14  1  0  0  0  0
 12 15  1  0  0  0  0
 13 32  1  0  0  0  0
 14 33  1  0  0  0  0
 15 16  1  0  0  0  0
 16 17  2  0  0  0  0
 16 18  1  0  0  0  0
 17 19  1  0  0  0  0
 17 34  1  0  0  0  0
 18 20  2  0  0  0  0
 18 35  1  0  0  0  0
 19 21  2  0  0  0  0
 20 21  1  0  0  0  0
 20 36  1  0  0  0  0
 21 37  1  0  0  0  0
M  END
> <PUBCHEM_COMPOUND_CID>
583326

> <PUBCHEM_CONFORMER_RMSD>
0.6

> <PUBCHEM_CONFORMER_DIVERSEORDER>
1
26
25
12
21
11
15
40
9
4
24
34
35
17
23
29
31
14
18
38
8
44
5
28
6
19
7
16
48
13
32
10
30
27
45
33
22
3
36
2
42
41
37
43
20
47
39
46

> <PUBCHEM_MMFF94_PARTIAL_CHARGES>
29
1 -0.19
10 -0.15
11 -0.15
12 0.09
13 -0.15
14 -0.15
15 0.4
16 0.09
17 -0.15
18 -0.15
19 0.19
2 -0.56
20 -0.15
21 -0.15
3 -0.57
30 0.15
31 0.15
32 0.15
33 0.15
34 0.15
35 0.15
36 0.15
37 0.15
4 -0.84
5 0.37
6 0.37
7 0.28
8 0.28
9 0.1

> <PUBCHEM_EFFECTIVE_ROTOR_COUNT>
4.2

> <PUBCHEM_PHARMACOPHORE_FEATURES>
6
1 2 acceptor
1 3 acceptor
1 4 cation
6 16 17 18 19 20 21 rings
6 2 4 5 6 7 8 rings
6 9 10 11 12 13 14 rings

> <PUBCHEM_HEAVY_ATOM_COUNT>
21

> <PUBCHEM_ATOM_DEF_STEREO_COUNT>
0

> <PUBCHEM_ATOM_UDEF_STEREO_COUNT>
0

> <PUBCHEM_BOND_DEF_STEREO_COUNT>
0

> <PUBCHEM_BOND_UDEF_STEREO_COUNT>
0

> <PUBCHEM_ISOTOPIC_ATOM_COUNT>
0

> <PUBCHEM_COMPONENT_COUNT>
1

> <PUBCHEM_CACTVS_TAUTO_COUNT>
1

> <PUBCHEM_CONFORMER_ID>
0008E69E00000001

> <PUBCHEM_MMFF94_ENERGY>
76.7858

> <PUBCHEM_FEATURE_SELFOVERLAP>
30.446

> <PUBCHEM_SHAPE_FINGERPRINT>
10 15 17060328614003615081
10378564 45 18040988609700112070
10498660 4 18335977606307465160
10670039 82 18058998601568302748
11089746 13 18334576862900876498
11543360 7 17022902333030881526
12236239 1 18335984246674999367
12633257 1 16917069915172904558
12730499 353 18259976072450666270
12892183 10 13614530640724930366
13533116 47 18271811280342453514
13675066 3 12463572863400091711
13955234 65 18269837686729756138
1420 369 9007057954654222860
14251758 9 9655585097600364539
14366163 111 17966969426461674000
14461889 52 17917983954688926595
14528608 73 18334013895509019295
14739800 52 18335718138737989568
14790565 3 18339076111858504745
15183329 4 16660635293424459313
15188451 53 11743548844052157689
15210252 30 18412257320934045136
15348495 7 13254788019565176437
15788980 27 14045741517384194947
15885798 251 8574712394716744034
16752209 62 5906058006289428758
17834072 33 18113338622032964135
17844677 252 17603297176646142185
1813 80 6411295732350560906
18222031 100 8214144057725555794
193927 3 8214140780596729421
20645477 70 16877931763995754350
21150785 3 16660370251314539061
221357 26 17530681026327358608
22149856 69 18058146454724413147
22289505 5 17675923201390353096
23016692 55 8718551648803288256
23402655 69 18334577957996412599
23559900 14 18059572537990499090
2767999 5 18202285796863079701
2916195 48 18408326570853095553
300161 21 18342463659986177415
312425 54 12607406602612224749
3472631 163 18271799061276339836
34797466 226 17458061543382549413
34934 24 18342741801530683315
350125 39 18128817632913217446
3680242 22 18202567289230864104
4072396 5 17632585941737958326
4340502 62 15841831166284429747
465052 167 7781512637607247340
474 4 17846491526432718126
4990 188 17749104513116943966
5104073 3 18272368724200302587
5374978 207 16056880243066762452
53794403 172 18196367014128907972
542803 24 17822008731356062081
543368 44 18335141977781779869
5924683 9 14188995736643235377
633830 44 18267584783394091119
7970288 3 7853583383183721804
8863177 126 5544612349572603573
960060 61 14490192708891678776

> <PUBCHEM_SHAPE_MULTIPOLES>
408.18
14.26
1.94
1.13
8.23
0.39
-0.21
-7.75
-1.49
-0.38
0.59
-1.39
-0.18
-0.06

> <PUBCHEM_SHAPE_SELFOVERLAP>
883.961

> <PUBCHEM_SHAPE_VOLUME>
224.4

> <PUBCHEM_COORDINATE_TYPE>
2
5
10

$$$$

