51090972
  -OEChem-06241223012D

 44 46  0     0  0  0  0  0  0999 V2000
    4.6783    0.4827    0.0000 O   0  0  0  0  0  0  0  0  0  0  0  0
    6.2619   -2.1767    0.0000 O   0  0  0  0  0  0  0  0  0  0  0  0
    6.7619    2.1535    0.0000 O   0  0  0  0  0  0  0  0  0  0  0  0
    6.7619    0.4214    0.0000 N   0  0  0  0  0  0  0  0  0  0  0  0
    7.7619   -1.3106    0.0000 N   0  0  0  0  0  0  0  0  0  0  0  0
    5.2619    1.2874    0.0000 C   0  0  0  0  0  0  0  0  0  0  0  0
    4.6783    2.0922    0.0000 C   0  0  0  0  0  0  0  0  0  0  0  0
    6.2619   -0.4446    0.0000 C   0  0  0  0  0  0  0  0  0  0  0  0
    7.7619    0.4214    0.0000 C   0  0  0  0  0  0  0  0  0  0  0  0
    3.7320    1.7874    0.0000 C   0  0  0  0  0  0  0  0  0  0  0  0
    6.2619    1.2874    0.0000 C   0  0  0  0  0  0  0  0  0  0  0  0
    3.7320    0.7874    0.0000 C   0  0  0  0  0  0  0  0  0  0  0  0
    6.7619   -1.3106    0.0000 C   0  0  0  0  0  0  0  0  0  0  0  0
    8.2619   -0.4446    0.0000 C   0  0  0  0  0  0  0  0  0  0  0  0
    4.9889    3.0427    0.0000 C   0  0  0  0  0  0  0  0  0  0  0  0
    2.8660    2.2874    0.0000 C   0  0  0  0  0  0  0  0  0  0  0  0
    2.8660    0.2874    0.0000 C   0  0  0  0  0  0  0  0  0  0  0  0
    2.0000    1.7874    0.0000 C   0  0  0  0  0  0  0  0  0  0  0  0
    2.0000    0.7874    0.0000 C   0  0  0  0  0  0  0  0  0  0  0  0
    9.2619   -0.4446    0.0000 C   0  0  0  0  0  0  0  0  0  0  0  0
    9.7619   -1.3106    0.0000 C   0  0  0  0  0  0  0  0  0  0  0  0
    8.2619   -2.1767    0.0000 C   0  0  0  0  0  0  0  0  0  0  0  0
    9.2619   -2.1767    0.0000 C   0  0  0  0  0  0  0  0  0  0  0  0
    6.7619   -3.0427    0.0000 C   0  0  0  0  0  0  0  0  0  0  0  0
    5.7869   -0.0461    0.0000 H   0  0  0  0  0  0  0  0  0  0  0  0
    5.7869   -0.8431    0.0000 H   0  0  0  0  0  0  0  0  0  0  0  0
    8.3445    0.6335    0.0000 H   0  0  0  0  0  0  0  0  0  0  0  0
    7.6542    1.0320    0.0000 H   0  0  0  0  0  0  0  0  0  0  0  0
    7.2368   -1.7092    0.0000 H   0  0  0  0  0  0  0  0  0  0  0  0
    7.2368   -0.9121    0.0000 H   0  0  0  0  0  0  0  0  0  0  0  0
    5.5783    2.8501    0.0000 H   0  0  0  0  0  0  0  0  0  0  0  0
    5.1815    3.6320    0.0000 H   0  0  0  0  0  0  0  0  0  0  0  0
    4.3996    3.2353    0.0000 H   0  0  0  0  0  0  0  0  0  0  0  0
    2.8660    2.9074    0.0000 H   0  0  0  0  0  0  0  0  0  0  0  0
    2.8660   -0.3326    0.0000 H   0  0  0  0  0  0  0  0  0  0  0  0
    1.4631    2.0974    0.0000 H   0  0  0  0  0  0  0  0  0  0  0  0
    1.4631    0.4774    0.0000 H   0  0  0  0  0  0  0  0  0  0  0  0
    9.5719    0.0923    0.0000 H   0  0  0  0  0  0  0  0  0  0  0  0
   10.3819   -1.3106    0.0000 H   0  0  0  0  0  0  0  0  0  0  0  0
    7.9519   -2.7136    0.0000 H   0  0  0  0  0  0  0  0  0  0  0  0
    9.5719   -2.7136    0.0000 H   0  0  0  0  0  0  0  0  0  0  0  0
    6.2249   -3.3527    0.0000 H   0  0  0  0  0  0  0  0  0  0  0  0
    7.0719   -3.5796    0.0000 H   0  0  0  0  0  0  0  0  0  0  0  0
    7.2988   -2.7327    0.0000 H   0  0  0  0  0  0  0  0  0  0  0  0
  1  6  1  0  0  0  0
  1 12  1  0  0  0  0
  2 13  1  0  0  0  0
  2 24  1  0  0  0  0
  3 11  2  0  0  0  0
  4  8  1  0  0  0  0
  4  9  1  0  0  0  0
  4 11  1  0  0  0  0
  5 14  1  0  0  0  0
  5 22  2  0  0  0  0
  6  7  2  0  0  0  0
  6 11  1  0  0  0  0
  7 10  1  0  0  0  0
  7 15  1  0  0  0  0
  8 13  1  0  0  0  0
  8 25  1  0  0  0  0
  8 26  1  0  0  0  0
  9 14  1  0  0  0  0
  9 27  1  0  0  0  0
  9 28  1  0  0  0  0
 10 12  1  0  0  0  0
 10 16  2  0  0  0  0
 12 17  2  0  0  0  0
 13 29  1  0  0  0  0
 13 30  1  0  0  0  0
 14 20  2  0  0  0  0
 15 31  1  0  0  0  0
 15 32  1  0  0  0  0
 15 33  1  0  0  0  0
 16 18  1  0  0  0  0
 16 34  1  0  0  0  0
 17 19  1  0  0  0  0
 17 35  1  0  0  0  0
 18 19  2  0  0  0  0
 18 36  1  0  0  0  0
 19 37  1  0  0  0  0
 20 21  1  0  0  0  0
 20 38  1  0  0  0  0
 21 23  2  0  0  0  0
 21 39  1  0  0  0  0
 22 23  1  0  0  0  0
 22 40  1  0  0  0  0
 23 41  1  0  0  0  0
 24 42  1  0  0  0  0
 24 43  1  0  0  0  0
 24 44  1  0  0  0  0
M  END
> <PUBCHEM_COMPOUND_CID>
51090972

> <PUBCHEM_COMPOUND_CANONICALIZED>
1

> <PUBCHEM_CACTVS_COMPLEXITY>
417

> <PUBCHEM_CACTVS_HBOND_ACCEPTOR>
4

> <PUBCHEM_CACTVS_HBOND_DONOR>
0

> <PUBCHEM_CACTVS_ROTATABLE_BOND>
6

> <PUBCHEM_CACTVS_SUBSKEYS>
AAADceB7MAAAAAAAAAAAAAAAAAAAASAAAAA8QAAAAAAAAEgB/AAAHgAAAAAADAzhngY+htMIFECoA7V3VAKCiCA1IiAI2CH+bNgOZvLEtb+XOSjkxhHY6YeY3+LugAAAAAAIAAAAAAAAABAAAAAAAAAAAA==

> <PUBCHEM_IUPAC_OPENEYE_NAME>
N-(2-methoxyethyl)-3-methyl-N-(2-pyridylmethyl)benzofuran-2-carboxamide

> <PUBCHEM_IUPAC_CAS_NAME>
N-(2-methoxyethyl)-3-methyl-N-(2-pyridinylmethyl)-2-benzofurancarboxamide

> <PUBCHEM_IUPAC_NAME>
N-(2-methoxyethyl)-3-methyl-N-(pyridin-2-ylmethyl)-1-benzofuran-2-carboxamide

> <PUBCHEM_IUPAC_SYSTEMATIC_NAME>
N-(2-methoxyethyl)-3-methyl-N-(pyridin-2-ylmethyl)-1-benzofuran-2-carboxamide

> <PUBCHEM_IUPAC_TRADITIONAL_NAME>
N-(2-methoxyethyl)-3-methyl-N-(2-pyridylmethyl)coumarilamide

> <PUBCHEM_IUPAC_INCHI>
InChI=1S/C19H20N2O3/c1-14-16-8-3-4-9-17(16)24-18(14)19(22)21(11-12-23-2)13-15-7-5-6-10-20-15/h3-10H,11-13H2,1-2H3

> <PUBCHEM_IUPAC_INCHIKEY>
PEQSQMHHBIZVED-UHFFFAOYSA-N

> <PUBCHEM_XLOGP3_AA>
2.8

> <PUBCHEM_EXACT_MASS>
324.147393

> <PUBCHEM_MOLECULAR_FORMULA>
C19H20N2O3

> <PUBCHEM_MOLECULAR_WEIGHT>
324.3737

> <PUBCHEM_OPENEYE_CAN_SMILES>
CC1=C(OC2=CC=CC=C12)C(=O)N(CCOC)CC3=CC=CC=N3

> <PUBCHEM_OPENEYE_ISO_SMILES>
CC1=C(OC2=CC=CC=C12)C(=O)N(CCOC)CC3=CC=CC=N3

> <PUBCHEM_CACTVS_TPSA>
55.6

> <PUBCHEM_MONOISOTOPIC_WEIGHT>
324.147393

> <PUBCHEM_TOTAL_CHARGE>
0

> <PUBCHEM_HEAVY_ATOM_COUNT>
24

> <PUBCHEM_ATOM_DEF_STEREO_COUNT>
0

> <PUBCHEM_ATOM_UDEF_STEREO_COUNT>
0

> <PUBCHEM_BOND_DEF_STEREO_COUNT>
0

> <PUBCHEM_BOND_UDEF_STEREO_COUNT>
0

> <PUBCHEM_ISOTOPIC_ATOM_COUNT>
0

> <PUBCHEM_COMPONENT_COUNT>
1

> <PUBCHEM_CACTVS_TAUTO_COUNT>
1

> <PUBCHEM_COORDINATE_TYPE>
1
5
255

> <PUBCHEM_BONDANNOTATIONS>
1  12  8
1  6  8
10  12  8
10  16  8
12  17  8
14  20  8
16  18  8
17  19  8
18  19  8
20  21  8
21  23  8
22  23  8
5  14  8
5  22  8
6  7  8
7  10  8

$$$$

