582772
  -OEChem-06241222442D

 72 73  0     1  0  0  0  0  0999 V2000
    7.6138   -3.3036    0.0000 O   0  0  0  0  0  0  0  0  0  0  0  0
    7.9244   -2.3531    0.0000 O   0  0  0  0  0  0  0  0  0  0  0  0
    6.3246   -4.4603    0.0000 O   0  0  0  0  0  0  0  0  0  0  0  0
    6.8529    2.7314    0.0000 O   0  0  0  0  0  0  0  0  0  0  0  0
    5.5637    1.5747    0.0000 O   0  0  0  0  0  0  0  0  0  0  0  0
    8.1886    1.2428    0.0000 O   0  0  0  0  0  0  0  0  0  0  0  0
    6.2781   -1.8150    0.0000 N   0  0  0  0  0  0  0  0  0  0  0  0
    4.6783   -5.5317    0.0000 N   0  0  0  0  0  0  0  0  0  0  0  0
    8.5458   -0.4520    0.0000 N   0  0  0  0  0  0  0  0  0  0  0  0
    5.9674   -2.7655    0.0000 C   0  0  3  0  0  0  0  0  0  0  0  0
    4.9889   -2.9717    0.0000 C   0  0  0  0  0  0  0  0  0  0  0  0
    4.6783   -3.9222    0.0000 C   0  0  0  0  0  0  0  0  0  0  0  0
    7.5673   -0.6583    0.0000 C   0  0  3  0  0  0  0  0  0  0  0  0
    3.7320   -4.2270    0.0000 C   0  0  0  0  0  0  0  0  0  0  0  0
    6.8994    0.0861    0.0000 C   0  0  0  0  0  0  0  0  0  0  0  0
    7.2566   -1.6088    0.0000 C   0  0  0  0  0  0  0  0  0  0  0  0
    3.7320   -5.2270    0.0000 C   0  0  0  0  0  0  0  0  0  0  0  0
    5.2619   -4.7270    0.0000 C   0  0  0  0  0  0  0  0  0  0  0  0
    6.6353   -3.5098    0.0000 C   0  0  0  0  0  0  0  0  0  0  0  0
    7.2101    1.0366    0.0000 C   0  0  0  0  0  0  0  0  0  0  0  0
    2.8660   -3.7270    0.0000 C   0  0  0  0  0  0  0  0  0  0  0  0
    2.8660   -5.7270    0.0000 C   0  0  0  0  0  0  0  0  0  0  0  0
    8.2816   -4.0479    0.0000 C   0  0  0  0  0  0  0  0  0  0  0  0
    2.0000   -4.2270    0.0000 C   0  0  0  0  0  0  0  0  0  0  0  0
    6.5422    1.7809    0.0000 C   0  0  0  0  0  0  0  0  0  0  0  0
    2.0000   -5.2270    0.0000 C   0  0  0  0  0  0  0  0  0  0  0  0
    9.2601   -3.8417    0.0000 C   0  0  0  0  0  0  0  0  0  0  0  0
    8.8564    0.4985    0.0000 C   0  0  0  0  0  0  0  0  0  0  0  0
    9.9280   -4.5860    0.0000 C   0  0  0  0  0  0  0  0  0  0  0  0
    6.1851    3.4757    0.0000 C   0  0  0  0  0  0  0  0  0  0  0  0
    6.4957    4.4262    0.0000 C   0  0  0  0  0  0  0  0  0  0  0  0
    9.8349    0.7047    0.0000 C   0  0  0  0  0  0  0  0  0  0  0  0
    5.8279    5.1705    0.0000 C   0  0  0  0  0  0  0  0  0  0  0  0
   10.9065   -4.3798    0.0000 C   0  0  0  0  0  0  0  0  0  0  0  0
    6.1385    6.1210    0.0000 C   0  0  0  0  0  0  0  0  0  0  0  0
    5.5534   -2.3040    0.0000 H   0  0  0  0  0  0  0  0  0  0  0  0
    4.9684   -2.3521    0.0000 H   0  0  0  0  0  0  0  0  0  0  0  0
    4.3751   -2.8844    0.0000 H   0  0  0  0  0  0  0  0  0  0  0  0
    7.9813   -1.1197    0.0000 H   0  0  0  0  0  0  0  0  0  0  0  0
    6.3525    0.3781    0.0000 H   0  0  0  0  0  0  0  0  0  0  0  0
    6.5169   -0.4019    0.0000 H   0  0  0  0  0  0  0  0  0  0  0  0
    5.8640   -1.3535    0.0000 H   0  0  0  0  0  0  0  0  0  0  0  0
    5.8819   -4.7270    0.0000 H   0  0  0  0  0  0  0  0  0  0  0  0
    7.7570    0.7446    0.0000 H   0  0  0  0  0  0  0  0  0  0  0  0
    7.5926    1.5245    0.0000 H   0  0  0  0  0  0  0  0  0  0  0  0
    4.8709   -6.1210    0.0000 H   0  0  0  0  0  0  0  0  0  0  0  0
    8.9598   -0.9135    0.0000 H   0  0  0  0  0  0  0  0  0  0  0  0
    2.8660   -3.1070    0.0000 H   0  0  0  0  0  0  0  0  0  0  0  0
    2.8660   -6.3470    0.0000 H   0  0  0  0  0  0  0  0  0  0  0  0
    7.7553   -4.3755    0.0000 H   0  0  0  0  0  0  0  0  0  0  0  0
    8.5129   -4.6232    0.0000 H   0  0  0  0  0  0  0  0  0  0  0  0
    1.4631   -3.9170    0.0000 H   0  0  0  0  0  0  0  0  0  0  0  0
    1.4631   -5.5370    0.0000 H   0  0  0  0  0  0  0  0  0  0  0  0
    9.7865   -3.5140    0.0000 H   0  0  0  0  0  0  0  0  0  0  0  0
    9.0289   -3.2664    0.0000 H   0  0  0  0  0  0  0  0  0  0  0  0
    9.4016   -4.9136    0.0000 H   0  0  0  0  0  0  0  0  0  0  0  0
   10.1592   -5.1612    0.0000 H   0  0  0  0  0  0  0  0  0  0  0  0
    5.6381    3.7677    0.0000 H   0  0  0  0  0  0  0  0  0  0  0  0
    5.8025    2.9878    0.0000 H   0  0  0  0  0  0  0  0  0  0  0  0
    7.0426    4.1342    0.0000 H   0  0  0  0  0  0  0  0  0  0  0  0
    6.8783    4.9141    0.0000 H   0  0  0  0  0  0  0  0  0  0  0  0
    9.9628    0.0980    0.0000 H   0  0  0  0  0  0  0  0  0  0  0  0
   10.4416    0.8326    0.0000 H   0  0  0  0  0  0  0  0  0  0  0  0
    9.7071    1.3114    0.0000 H   0  0  0  0  0  0  0  0  0  0  0  0
    5.2810    5.4625    0.0000 H   0  0  0  0  0  0  0  0  0  0  0  0
    5.4453    4.6826    0.0000 H   0  0  0  0  0  0  0  0  0  0  0  0
   11.0343   -4.9864    0.0000 H   0  0  0  0  0  0  0  0  0  0  0  0
   11.5132   -4.2519    0.0000 H   0  0  0  0  0  0  0  0  0  0  0  0
   10.7786   -3.7731    0.0000 H   0  0  0  0  0  0  0  0  0  0  0  0
    6.7279    5.9284    0.0000 H   0  0  0  0  0  0  0  0  0  0  0  0
    6.3312    6.7104    0.0000 H   0  0  0  0  0  0  0  0  0  0  0  0
    5.5492    6.3136    0.0000 H   0  0  0  0  0  0  0  0  0  0  0  0
  1 19  1  0  0  0  0
  1 23  1  0  0  0  0
  2 16  2  0  0  0  0
  3 19  2  0  0  0  0
  4 25  1  0  0  0  0
  4 30  1  0  0  0  0
  5 25  2  0  0  0  0
  6 28  2  0  0  0  0
  7 10  1  0  0  0  0
  7 16  1  0  0  0  0
  7 42  1  0  0  0  0
  8 17  1  0  0  0  0
  8 18  1  0  0  0  0
  8 46  1  0  0  0  0
  9 13  1  0  0  0  0
  9 28  1  0  0  0  0
  9 47  1  0  0  0  0
 10 11  1  0  0  0  0
 10 19  1  0  0  0  0
 10 36  1  0  0  0  0
 11 12  1  0  0  0  0
 11 37  1  0  0  0  0
 11 38  1  0  0  0  0
 12 14  1  0  0  0  0
 12 18  2  0  0  0  0
 13 15  1  0  0  0  0
 13 16  1  0  0  0  0
 13 39  1  0  0  0  0
 14 17  1  0  0  0  0
 14 21  2  0  0  0  0
 15 20  1  0  0  0  0
 15 40  1  0  0  0  0
 15 41  1  0  0  0  0
 17 22  2  0  0  0  0
 18 43  1  0  0  0  0
 20 25  1  0  0  0  0
 20 44  1  0  0  0  0
 20 45  1  0  0  0  0
 21 24  1  0  0  0  0
 21 48  1  0  0  0  0
 22 26  1  0  0  0  0
 22 49  1  0  0  0  0
 23 27  1  0  0  0  0
 23 50  1  0  0  0  0
 23 51  1  0  0  0  0
 24 26  2  0  0  0  0
 24 52  1  0  0  0  0
 26 53  1  0  0  0  0
 27 29  1  0  0  0  0
 27 54  1  0  0  0  0
 27 55  1  0  0  0  0
 28 32  1  0  0  0  0
 29 34  1  0  0  0  0
 29 56  1  0  0  0  0
 29 57  1  0  0  0  0
 30 31  1  0  0  0  0
 30 58  1  0  0  0  0
 30 59  1  0  0  0  0
 31 33  1  0  0  0  0
 31 60  1  0  0  0  0
 31 61  1  0  0  0  0
 32 62  1  0  0  0  0
 32 63  1  0  0  0  0
 32 64  1  0  0  0  0
 33 35  1  0  0  0  0
 33 65  1  0  0  0  0
 33 66  1  0  0  0  0
 34 67  1  0  0  0  0
 34 68  1  0  0  0  0
 34 69  1  0  0  0  0
 35 70  1  0  0  0  0
 35 71  1  0  0  0  0
 35 72  1  0  0  0  0
M  END
> <PUBCHEM_COMPOUND_CID>
582772

> <PUBCHEM_COMPOUND_CANONICALIZED>
1

> <PUBCHEM_CACTVS_COMPLEXITY>
701

> <PUBCHEM_CACTVS_HBOND_ACCEPTOR>
6

> <PUBCHEM_CACTVS_HBOND_DONOR>
3

> <PUBCHEM_CACTVS_ROTATABLE_BOND>
17

> <PUBCHEM_CACTVS_SUBSKEYS>
AAADcfB7OAAAAAAAAAAAAAAAAAAAAWAAAAAwAAAAAAAAAFgB8AAAHgAQAAAADCjhngY+yPLJlACoAzX3XACCgCAxAiAI2aG4ZJgKYPLAkbGXIAhklgDYyAe83/KOgAAAAAACAAAAAAAAAAQAAAAAAAAAAA==

> <PUBCHEM_IUPAC_OPENEYE_NAME>
butyl 4-acetamido-5-[[2-butoxy-1-(1H-indol-3-ylmethyl)-2-oxo-ethyl]amino]-5-oxo-pentanoate

> <PUBCHEM_IUPAC_CAS_NAME>
4-acetamido-5-[[1-butoxy-3-(1H-indol-3-yl)-1-oxopropan-2-yl]amino]-5-oxopentanoic acid butyl ester

> <PUBCHEM_IUPAC_NAME>
butyl 4-acetamido-5-[[1-butoxy-3-(1H-indol-3-yl)-1-oxopropan-2-yl]amino]-5-oxopentanoate

> <PUBCHEM_IUPAC_SYSTEMATIC_NAME>
butyl 4-acetamido-5-[[1-butoxy-3-(1H-indol-3-yl)-1-oxidanylidene-propan-2-yl]amino]-5-oxidanylidene-pentanoate

> <PUBCHEM_IUPAC_TRADITIONAL_NAME>
4-acetamido-5-[[2-butoxy-1-(1H-indol-3-ylmethyl)-2-keto-ethyl]amino]-5-keto-valeric acid butyl ester

> <PUBCHEM_IUPAC_INCHI>
InChI=1S/C26H37N3O6/c1-4-6-14-34-24(31)13-12-22(28-18(3)30)25(32)29-23(26(33)35-15-7-5-2)16-19-17-27-21-11-9-8-10-20(19)21/h8-11,17,22-23,27H,4-7,12-16H2,1-3H3,(H,28,30)(H,29,32)

> <PUBCHEM_IUPAC_INCHIKEY>
BPWNPLDLSUOTRF-UHFFFAOYSA-N

> <PUBCHEM_XLOGP3>
3.1

> <PUBCHEM_EXACT_MASS>
487.268236

> <PUBCHEM_MOLECULAR_FORMULA>
C26H37N3O6

> <PUBCHEM_MOLECULAR_WEIGHT>
487.58848

> <PUBCHEM_OPENEYE_CAN_SMILES>
CCCCOC(=O)CCC(C(=O)NC(CC1=CNC2=CC=CC=C21)C(=O)OCCCC)NC(=O)C

> <PUBCHEM_OPENEYE_ISO_SMILES>
CCCCOC(=O)CCC(C(=O)NC(CC1=CNC2=CC=CC=C21)C(=O)OCCCC)NC(=O)C

> <PUBCHEM_CACTVS_TPSA>
127

> <PUBCHEM_MONOISOTOPIC_WEIGHT>
487.268236

> <PUBCHEM_TOTAL_CHARGE>
0

> <PUBCHEM_HEAVY_ATOM_COUNT>
35

> <PUBCHEM_ATOM_DEF_STEREO_COUNT>
0

> <PUBCHEM_ATOM_UDEF_STEREO_COUNT>
2

> <PUBCHEM_BOND_DEF_STEREO_COUNT>
0

> <PUBCHEM_BOND_UDEF_STEREO_COUNT>
0

> <PUBCHEM_ISOTOPIC_ATOM_COUNT>
0

> <PUBCHEM_COMPONENT_COUNT>
1

> <PUBCHEM_CACTVS_TAUTO_COUNT>
4

> <PUBCHEM_COORDINATE_TYPE>
1
5
255

> <PUBCHEM_BONDANNOTATIONS>
10  11  3
12  14  8
12  18  8
13  15  3
14  17  8
14  21  8
17  22  8
21  24  8
22  26  8
24  26  8
8  17  8
8  18  8

$$$$

