3409
  -OEChem-06251223242D

 32 34  0     0  0  0  0  0  0999 V2000
    7.1962    1.7327    0.0000 O   0  0  0  0  0  0  0  0  0  0  0  0
    7.1962   -1.2673    0.0000 O   0  0  0  0  0  0  0  0  0  0  0  0
    2.8660   -1.7673    0.0000 O   0  0  0  0  0  0  0  0  0  0  0  0
   10.7263    1.7568    0.0000 O   0  0  0  0  0  0  0  0  0  0  0  0
    6.3301    0.2327    0.0000 C   0  0  0  0  0  0  0  0  0  0  0  0
    8.0622    0.2327    0.0000 C   0  0  0  0  0  0  0  0  0  0  0  0
    7.1962   -0.2673    0.0000 C   0  0  0  0  0  0  0  0  0  0  0  0
    5.4641   -0.2673    0.0000 C   0  0  0  0  0  0  0  0  0  0  0  0
    8.0622    1.2327    0.0000 C   0  0  0  0  0  0  0  0  0  0  0  0
    6.3301    1.2327    0.0000 C   0  0  0  0  0  0  0  0  0  0  0  0
    8.9561   -0.3020    0.0000 C   0  0  0  0  0  0  0  0  0  0  0  0
    5.4641   -1.2673    0.0000 C   0  0  0  0  0  0  0  0  0  0  0  0
    4.5981    0.2327    0.0000 C   0  0  0  0  0  0  0  0  0  0  0  0
    8.9561    1.7673    0.0000 C   0  0  0  0  0  0  0  0  0  0  0  0
    9.8622    0.2119    0.0000 C   0  0  0  0  0  0  0  0  0  0  0  0
    4.5981   -1.7673    0.0000 C   0  0  0  0  0  0  0  0  0  0  0  0
    3.7321   -0.2673    0.0000 C   0  0  0  0  0  0  0  0  0  0  0  0
    3.7321   -1.2673    0.0000 C   0  0  0  0  0  0  0  0  0  0  0  0
    9.8622    1.2535    0.0000 C   0  0  0  0  0  0  0  0  0  0  0  0
    2.0000   -1.2673    0.0000 C   0  0  0  0  0  0  0  0  0  0  0  0
    5.7932    1.5427    0.0000 H   0  0  0  0  0  0  0  0  0  0  0  0
    8.9490   -0.9220    0.0000 H   0  0  0  0  0  0  0  0  0  0  0  0
    6.0010   -1.5773    0.0000 H   0  0  0  0  0  0  0  0  0  0  0  0
    4.5981    0.8527    0.0000 H   0  0  0  0  0  0  0  0  0  0  0  0
    8.9490    2.3873    0.0000 H   0  0  0  0  0  0  0  0  0  0  0  0
   10.3979   -0.1002    0.0000 H   0  0  0  0  0  0  0  0  0  0  0  0
    4.5981   -2.3873    0.0000 H   0  0  0  0  0  0  0  0  0  0  0  0
    3.1951    0.0427    0.0000 H   0  0  0  0  0  0  0  0  0  0  0  0
    7.7331   -1.5773    0.0000 H   0  0  0  0  0  0  0  0  0  0  0  0
    2.3100   -0.7304    0.0000 H   0  0  0  0  0  0  0  0  0  0  0  0
    1.4631   -0.9573    0.0000 H   0  0  0  0  0  0  0  0  0  0  0  0
    1.6900   -1.8043    0.0000 H   0  0  0  0  0  0  0  0  0  0  0  0
  1  9  1  0  0  0  0
  1 10  1  0  0  0  0
  2  7  1  0  0  0  0
  2 29  1  0  0  0  0
  3 18  1  0  0  0  0
  3 20  1  0  0  0  0
  4 19  2  0  0  0  0
  5  7  1  0  0  0  0
  5  8  1  0  0  0  0
  5 10  2  0  0  0  0
  6  7  2  0  0  0  0
  6  9  1  0  0  0  0
  6 11  1  0  0  0  0
  8 12  2  0  0  0  0
  8 13  1  0  0  0  0
  9 14  2  0  0  0  0
 10 21  1  0  0  0  0
 11 15  2  0  0  0  0
 11 22  1  0  0  0  0
 12 16  1  0  0  0  0
 12 23  1  0  0  0  0
 13 17  2  0  0  0  0
 13 24  1  0  0  0  0
 14 19  1  0  0  0  0
 14 25  1  0  0  0  0
 15 19  1  0  0  0  0
 15 26  1  0  0  0  0
 16 18  2  0  0  0  0
 16 27  1  0  0  0  0
 17 18  1  0  0  0  0
 17 28  1  0  0  0  0
 20 30  1  0  0  0  0
 20 31  1  0  0  0  0
 20 32  1  0  0  0  0
M  END
> <PUBCHEM_COMPOUND_CID>
3409

> <PUBCHEM_COMPOUND_CANONICALIZED>
1

> <PUBCHEM_CACTVS_COMPLEXITY>
543

> <PUBCHEM_CACTVS_HBOND_ACCEPTOR>
4

> <PUBCHEM_CACTVS_HBOND_DONOR>
1

> <PUBCHEM_CACTVS_ROTATABLE_BOND>
2

> <PUBCHEM_CACTVS_SUBSKEYS>
AAADccB4OAAAAAAAAAAAAAAAAAAAAAAAAAAwQIAAAAAAAACBAAAAGgAACAAADASgmAIyBoAABgCIAqBSAAACCAAgIAAIiAAGCMgMJiKEMRqAcCAkwBEIuYeAwKAOIAAAAAAAAABAAAAAAAAAAAAAAAAAAA==

> <PUBCHEM_IUPAC_OPENEYE_NAME>
4-hydroxy-3-(4-methoxyphenyl)chromen-7-one

> <PUBCHEM_IUPAC_CAS_NAME>
4-hydroxy-3-(4-methoxyphenyl)-1-benzopyran-7-one

> <PUBCHEM_IUPAC_NAME>
4-hydroxy-3-(4-methoxyphenyl)chromen-7-one

> <PUBCHEM_IUPAC_SYSTEMATIC_NAME>
3-(4-methoxyphenyl)-4-oxidanyl-chromen-7-one

> <PUBCHEM_IUPAC_TRADITIONAL_NAME>
4-hydroxy-3-(4-methoxyphenyl)chromen-7-one

> <PUBCHEM_IUPAC_INCHI>
InChI=1S/C16H12O4/c1-19-12-5-2-10(3-6-12)14-9-20-15-8-11(17)4-7-13(15)16(14)18/h2-9,18H,1H3

> <PUBCHEM_IUPAC_INCHIKEY>
ZVWPSQOMPAPTOW-UHFFFAOYSA-N

> <PUBCHEM_XLOGP3_AA>
1.5

> <PUBCHEM_EXACT_MASS>
268.073559

> <PUBCHEM_MOLECULAR_FORMULA>
C16H12O4

> <PUBCHEM_MOLECULAR_WEIGHT>
268.26408

> <PUBCHEM_OPENEYE_CAN_SMILES>
COC1=CC=C(C=C1)C2=COC3=CC(=O)C=CC3=C2O

> <PUBCHEM_OPENEYE_ISO_SMILES>
COC1=CC=C(C=C1)C2=COC3=CC(=O)C=CC3=C2O

> <PUBCHEM_CACTVS_TPSA>
55.8

> <PUBCHEM_MONOISOTOPIC_WEIGHT>
268.073559

> <PUBCHEM_TOTAL_CHARGE>
0

> <PUBCHEM_HEAVY_ATOM_COUNT>
20

> <PUBCHEM_ATOM_DEF_STEREO_COUNT>
0

> <PUBCHEM_ATOM_UDEF_STEREO_COUNT>
0

> <PUBCHEM_BOND_DEF_STEREO_COUNT>
0

> <PUBCHEM_BOND_UDEF_STEREO_COUNT>
0

> <PUBCHEM_ISOTOPIC_ATOM_COUNT>
0

> <PUBCHEM_COMPONENT_COUNT>
1

> <PUBCHEM_CACTVS_TAUTO_COUNT>
5

> <PUBCHEM_COORDINATE_TYPE>
1
5
255

> <PUBCHEM_BONDANNOTATIONS>
1  10  8
1  9  8
11  15  8
12  16  8
13  17  8
14  19  8
15  19  8
16  18  8
17  18  8
5  10  8
5  7  8
6  11  8
6  7  8
8  12  8
8  13  8
9  14  8

$$$$

