17395692
  -OEChem-06241222512D

 51 52  0     0  0  0  0  0  0999 V2000
    5.4641    0.2148    0.0000 O   0  0  0  0  0  0  0  0  0  0  0  0
    5.6491    4.9762    0.0000 O   0  0  0  0  0  0  0  0  0  0  0  0
    7.1962    0.2148    0.0000 O   0  0  0  0  0  0  0  0  0  0  0  0
    3.7320   -0.7852    0.0000 O   0  0  0  0  0  0  0  0  0  0  0  0
    4.2478    3.9581    0.0000 O   0  0  0  0  0  0  0  0  0  0  0  0
    7.1391    2.3026    0.0000 N   0  0  0  0  0  0  0  0  0  0  0  0
    4.5981   -2.2852    0.0000 N   0  0  0  0  0  0  0  0  0  0  0  0
    5.5211    2.3026    0.0000 C   0  0  0  0  0  0  0  0  0  0  0  0
    5.8301    3.2536    0.0000 C   0  0  0  0  0  0  0  0  0  0  0  0
    6.3301    1.7148    0.0000 C   0  0  0  0  0  0  0  0  0  0  0  0
    6.8301    3.2536    0.0000 C   0  0  0  0  0  0  0  0  0  0  0  0
    3.7320   -2.7852    0.0000 C   0  0  0  0  0  0  0  0  0  0  0  0
    3.7320   -3.7852    0.0000 C   0  0  0  0  0  0  0  0  0  0  0  0
    2.8660   -4.2852    0.0000 C   0  0  0  0  0  0  0  0  0  0  0  0
    4.5700    1.9936    0.0000 C   0  0  0  0  0  0  0  0  0  0  0  0
    6.3301    0.7148    0.0000 C   0  0  0  0  0  0  0  0  0  0  0  0
    7.4179    4.0626    0.0000 C   0  0  0  0  0  0  0  0  0  0  0  0
    4.5981   -1.2852    0.0000 C   0  0  0  0  0  0  0  0  0  0  0  0
    5.4641   -0.7852    0.0000 C   0  0  0  0  0  0  0  0  0  0  0  0
    4.5981   -4.2852    0.0000 C   0  0  0  0  0  0  0  0  0  0  0  0
    5.2423    4.0626    0.0000 C   0  0  0  0  0  0  0  0  0  0  0  0
    5.4641   -2.7852    0.0000 C   0  0  0  0  0  0  0  0  0  0  0  0
    2.8660   -5.2852    0.0000 C   0  0  0  0  0  0  0  0  0  0  0  0
    2.0000   -3.7852    0.0000 C   0  0  0  0  0  0  0  0  0  0  0  0
    4.5981   -5.2852    0.0000 C   0  0  0  0  0  0  0  0  0  0  0  0
    3.7320   -5.7852    0.0000 C   0  0  0  0  0  0  0  0  0  0  0  0
    5.0613    5.7852    0.0000 C   0  0  0  0  0  0  0  0  0  0  0  0
    3.5200   -2.2026    0.0000 H   0  0  0  0  0  0  0  0  0  0  0  0
    3.1215   -2.8929    0.0000 H   0  0  0  0  0  0  0  0  0  0  0  0
    7.7288    2.1110    0.0000 H   0  0  0  0  0  0  0  0  0  0  0  0
    4.3785    2.5832    0.0000 H   0  0  0  0  0  0  0  0  0  0  0  0
    3.9804    1.8020    0.0000 H   0  0  0  0  0  0  0  0  0  0  0  0
    4.7616    1.4039    0.0000 H   0  0  0  0  0  0  0  0  0  0  0  0
    7.9195    3.6982    0.0000 H   0  0  0  0  0  0  0  0  0  0  0  0
    7.7823    4.5642    0.0000 H   0  0  0  0  0  0  0  0  0  0  0  0
    6.9163    4.4271    0.0000 H   0  0  0  0  0  0  0  0  0  0  0  0
    5.6762   -1.3678    0.0000 H   0  0  0  0  0  0  0  0  0  0  0  0
    6.0747   -0.6775    0.0000 H   0  0  0  0  0  0  0  0  0  0  0  0
    5.1350   -3.9752    0.0000 H   0  0  0  0  0  0  0  0  0  0  0  0
    5.1541   -3.3222    0.0000 H   0  0  0  0  0  0  0  0  0  0  0  0
    6.0010   -3.0952    0.0000 H   0  0  0  0  0  0  0  0  0  0  0  0
    5.7741   -2.2483    0.0000 H   0  0  0  0  0  0  0  0  0  0  0  0
    2.3291   -5.5952    0.0000 H   0  0  0  0  0  0  0  0  0  0  0  0
    2.3100   -3.2483    0.0000 H   0  0  0  0  0  0  0  0  0  0  0  0
    1.4631   -3.4752    0.0000 H   0  0  0  0  0  0  0  0  0  0  0  0
    1.6900   -4.3222    0.0000 H   0  0  0  0  0  0  0  0  0  0  0  0
    5.1350   -5.5952    0.0000 H   0  0  0  0  0  0  0  0  0  0  0  0
    3.7320   -6.4052    0.0000 H   0  0  0  0  0  0  0  0  0  0  0  0
    5.5629    6.1496    0.0000 H   0  0  0  0  0  0  0  0  0  0  0  0
    4.6969    6.2868    0.0000 H   0  0  0  0  0  0  0  0  0  0  0  0
    4.5597    5.4208    0.0000 H   0  0  0  0  0  0  0  0  0  0  0  0
  1 16  1  0  0  0  0
  1 19  1  0  0  0  0
  2 21  1  0  0  0  0
  2 27  1  0  0  0  0
  3 16  2  0  0  0  0
  4 18  2  0  0  0  0
  5 21  2  0  0  0  0
  6 10  1  0  0  0  0
  6 11  1  0  0  0  0
  6 30  1  0  0  0  0
  7 12  1  0  0  0  0
  7 18  1  0  0  0  0
  7 22  1  0  0  0  0
  8  9  1  0  0  0  0
  8 10  2  0  0  0  0
  8 15  1  0  0  0  0
  9 11  2  0  0  0  0
  9 21  1  0  0  0  0
 10 16  1  0  0  0  0
 11 17  1  0  0  0  0
 12 13  1  0  0  0  0
 12 28  1  0  0  0  0
 12 29  1  0  0  0  0
 13 14  1  0  0  0  0
 13 20  2  0  0  0  0
 14 23  2  0  0  0  0
 14 24  1  0  0  0  0
 15 31  1  0  0  0  0
 15 32  1  0  0  0  0
 15 33  1  0  0  0  0
 17 34  1  0  0  0  0
 17 35  1  0  0  0  0
 17 36  1  0  0  0  0
 18 19  1  0  0  0  0
 19 37  1  0  0  0  0
 19 38  1  0  0  0  0
 20 25  1  0  0  0  0
 20 39  1  0  0  0  0
 22 40  1  0  0  0  0
 22 41  1  0  0  0  0
 22 42  1  0  0  0  0
 23 26  1  0  0  0  0
 23 43  1  0  0  0  0
 24 44  1  0  0  0  0
 24 45  1  0  0  0  0
 24 46  1  0  0  0  0
 25 26  2  0  0  0  0
 25 47  1  0  0  0  0
 26 48  1  0  0  0  0
 27 49  1  0  0  0  0
 27 50  1  0  0  0  0
 27 51  1  0  0  0  0
M  END
> <PUBCHEM_COMPOUND_CID>
17395692

> <PUBCHEM_COMPOUND_CANONICALIZED>
1

> <PUBCHEM_CACTVS_COMPLEXITY>
553

> <PUBCHEM_CACTVS_HBOND_ACCEPTOR>
5

> <PUBCHEM_CACTVS_HBOND_DONOR>
1

> <PUBCHEM_CACTVS_ROTATABLE_BOND>
8

> <PUBCHEM_CACTVS_SUBSKEYS>
AAADceB7OAAAAAAAAAAAAAAAAAAAAWAAAAAwAAAAAAAAAAABwAAAHgAQAAAADAjhngYyiJPJlACoAyXyXAaCgCAnACAImSH4TNgKJnrAtb2HMYhm1gHY6Ue8/4kegAAAAAAQAAAAAAAAACAAAAAAAAAAAA==

> <PUBCHEM_IUPAC_OPENEYE_NAME>
O4-methyl O2-[2-[methyl(o-tolylmethyl)amino]-2-oxo-ethyl] 3,5-dimethyl-1H-pyrrole-2,4-dicarboxylate

> <PUBCHEM_IUPAC_CAS_NAME>
3,5-dimethyl-1H-pyrrole-2,4-dicarboxylic acid O4-methyl ester O2-[2-[methyl-[(2-methylphenyl)methyl]amino]-2-oxoethyl] ester

> <PUBCHEM_IUPAC_NAME>
4-O-methyl 2-O-[2-[methyl-[(2-methylphenyl)methyl]amino]-2-oxoethyl] 3,5-dimethyl-1H-pyrrole-2,4-dicarboxylate

> <PUBCHEM_IUPAC_SYSTEMATIC_NAME>
O4-methyl O2-[2-[methyl-[(2-methylphenyl)methyl]amino]-2-oxidanylidene-ethyl] 3,5-dimethyl-1H-pyrrole-2,4-dicarboxylate

> <PUBCHEM_IUPAC_TRADITIONAL_NAME>
3,5-dimethyl-1H-pyrrole-2,4-dicarboxylic acid O2-[2-keto-2-[methyl-(2-methylbenzyl)amino]ethyl] ester O4-methyl ester

> <PUBCHEM_IUPAC_INCHI>
InChI=1S/C20H24N2O5/c1-12-8-6-7-9-15(12)10-22(4)16(23)11-27-20(25)18-13(2)17(14(3)21-18)19(24)26-5/h6-9,21H,10-11H2,1-5H3

> <PUBCHEM_IUPAC_INCHIKEY>
NJWVDDVSYUTMDB-UHFFFAOYSA-N

> <PUBCHEM_XLOGP3_AA>
2.9

> <PUBCHEM_EXACT_MASS>
372.168522

> <PUBCHEM_MOLECULAR_FORMULA>
C20H24N2O5

> <PUBCHEM_MOLECULAR_WEIGHT>
372.41496

> <PUBCHEM_OPENEYE_CAN_SMILES>
CC1=CC=CC=C1CN(C)C(=O)COC(=O)C2=C(C(=C(N2)C)C(=O)OC)C

> <PUBCHEM_OPENEYE_ISO_SMILES>
CC1=CC=CC=C1CN(C)C(=O)COC(=O)C2=C(C(=C(N2)C)C(=O)OC)C

> <PUBCHEM_CACTVS_TPSA>
88.7

> <PUBCHEM_MONOISOTOPIC_WEIGHT>
372.168522

> <PUBCHEM_TOTAL_CHARGE>
0

> <PUBCHEM_HEAVY_ATOM_COUNT>
27

> <PUBCHEM_ATOM_DEF_STEREO_COUNT>
0

> <PUBCHEM_ATOM_UDEF_STEREO_COUNT>
0

> <PUBCHEM_BOND_DEF_STEREO_COUNT>
0

> <PUBCHEM_BOND_UDEF_STEREO_COUNT>
0

> <PUBCHEM_ISOTOPIC_ATOM_COUNT>
0

> <PUBCHEM_COMPONENT_COUNT>
1

> <PUBCHEM_CACTVS_TAUTO_COUNT>
10

> <PUBCHEM_COORDINATE_TYPE>
1
5
255

> <PUBCHEM_BONDANNOTATIONS>
13  14  8
13  20  8
14  23  8
20  25  8
23  26  8
25  26  8
6  10  8
6  11  8
8  10  8
8  9  8
9  11  8

$$$$

