5762
  -OEChem-06261200522D

 15 15  0     0  0  0  0  0  0999 V2000
    2.0000   -0.0600    0.0000 Cl  0  0  0  0  0  0  0  0  0  0  0  0
    5.4641   -0.0600    0.0000 Cl  0  0  0  0  0  0  0  0  0  0  0  0
    5.4641   -2.0600    0.0000 Cl  0  0  0  0  0  0  0  0  0  0  0  0
    2.0000   -2.0600    0.0000 Cl  0  0  0  0  0  0  0  0  0  0  0  0
    4.5981    1.4400    0.0000 O   0  0  0  0  0  0  0  0  0  0  0  0
    2.8660    1.4400    0.0000 O   0  0  0  0  0  0  0  0  0  0  0  0
    3.7320   -0.0600    0.0000 C   0  0  0  0  0  0  0  0  0  0  0  0
    2.8660   -0.5600    0.0000 C   0  0  0  0  0  0  0  0  0  0  0  0
    4.5981   -0.5600    0.0000 C   0  0  0  0  0  0  0  0  0  0  0  0
    4.5981   -1.5600    0.0000 C   0  0  0  0  0  0  0  0  0  0  0  0
    2.8660   -1.5600    0.0000 C   0  0  0  0  0  0  0  0  0  0  0  0
    3.7320   -2.0600    0.0000 C   0  0  0  0  0  0  0  0  0  0  0  0
    3.7320    0.9400    0.0000 C   0  0  0  0  0  0  0  0  0  0  0  0
    3.7320   -2.6800    0.0000 H   0  0  0  0  0  0  0  0  0  0  0  0
    4.5981    2.0600    0.0000 H   0  0  0  0  0  0  0  0  0  0  0  0
  1  8  1  0  0  0  0
  2  9  1  0  0  0  0
  3 10  1  0  0  0  0
  4 11  1  0  0  0  0
  5 13  1  0  0  0  0
  5 15  1  0  0  0  0
  6 13  2  0  0  0  0
  7  8  2  0  0  0  0
  7  9  1  0  0  0  0
  7 13  1  0  0  0  0
  8 11  1  0  0  0  0
  9 10  2  0  0  0  0
 10 12  1  0  0  0  0
 11 12  2  0  0  0  0
 12 14  1  0  0  0  0
M  END
> <PUBCHEM_COMPOUND_CID>
5762

> <PUBCHEM_COMPOUND_CANONICALIZED>
1

> <PUBCHEM_CACTVS_COMPLEXITY>
197

> <PUBCHEM_CACTVS_HBOND_ACCEPTOR>
2

> <PUBCHEM_CACTVS_HBOND_DONOR>
1

> <PUBCHEM_CACTVS_ROTATABLE_BOND>
1

> <PUBCHEM_CACTVS_SUBSKEYS>
AAADcQBgMAAHAAAAAAAAAAAAAAAAAAAAAAAwAAAAAAAAAAABAAAAGgIACAAADAKAmCAwCIAAAgCIAiDSCAACAAAkBQAAikEACsgIJjKBFhCAcQAkwAEInQeIyCCOAAAQIACBAAQAACBAAQIACAAAAAAAAA==

> <PUBCHEM_IUPAC_OPENEYE_NAME>
2,3,5,6-tetrachlorobenzoic acid

> <PUBCHEM_IUPAC_CAS_NAME>
2,3,5,6-tetrachlorobenzoic acid

> <PUBCHEM_IUPAC_NAME>
2,3,5,6-tetrachlorobenzoic acid

> <PUBCHEM_IUPAC_SYSTEMATIC_NAME>
2,3,5,6-tetrakis(chloranyl)benzoic acid

> <PUBCHEM_IUPAC_TRADITIONAL_NAME>
2,3,5,6-tetrachlorobenzoic acid

> <PUBCHEM_IUPAC_INCHI>
InChI=1S/C7H2Cl4O2/c8-2-1-3(9)6(11)4(5(2)10)7(12)13/h1H,(H,12,13)

> <PUBCHEM_IUPAC_INCHIKEY>
UYGUFXUBSNDUFA-UHFFFAOYSA-N

> <PUBCHEM_XLOGP3>
4.1

> <PUBCHEM_EXACT_MASS>
259.87794

> <PUBCHEM_MOLECULAR_FORMULA>
C7H2Cl4O2

> <PUBCHEM_MOLECULAR_WEIGHT>
259.90158

> <PUBCHEM_OPENEYE_CAN_SMILES>
C1=C(C(=C(C(=C1Cl)Cl)C(=O)O)Cl)Cl

> <PUBCHEM_OPENEYE_ISO_SMILES>
C1=C(C(=C(C(=C1Cl)Cl)C(=O)O)Cl)Cl

> <PUBCHEM_CACTVS_TPSA>
37.3

> <PUBCHEM_MONOISOTOPIC_WEIGHT>
257.88089

> <PUBCHEM_TOTAL_CHARGE>
0

> <PUBCHEM_HEAVY_ATOM_COUNT>
13

> <PUBCHEM_ATOM_DEF_STEREO_COUNT>
0

> <PUBCHEM_ATOM_UDEF_STEREO_COUNT>
0

> <PUBCHEM_BOND_DEF_STEREO_COUNT>
0

> <PUBCHEM_BOND_UDEF_STEREO_COUNT>
0

> <PUBCHEM_ISOTOPIC_ATOM_COUNT>
0

> <PUBCHEM_COMPONENT_COUNT>
1

> <PUBCHEM_CACTVS_TAUTO_COUNT>
1

> <PUBCHEM_COORDINATE_TYPE>
1
5
255

> <PUBCHEM_BONDANNOTATIONS>
10  12  8
11  12  8
7  8  8
7  9  8
8  11  8
9  10  8

$$$$

