8962
  -OEChem-06261203162D

 15 16  0     0  0  0  0  0  0999 V2000
    2.8660    2.0000    0.0000 S   0  0  0  0  0  0  0  0  0  0  0  0
    2.8660   -2.0000    0.0000 O   0  0  0  0  0  0  0  0  0  0  0  0
    2.8660   -1.0000    0.0000 N   0  0  0  0  0  0  0  0  0  0  0  0
    4.6783   -0.8047    0.0000 N   0  0  0  0  0  0  0  0  0  0  0  0
    4.6783    0.8047    0.0000 N   0  0  0  0  0  0  0  0  0  0  0  0
    2.0000    0.5000    0.0000 N   0  0  0  0  0  0  0  0  0  0  0  0
    3.7321   -0.5000    0.0000 C   0  0  0  0  0  0  0  0  0  0  0  0
    3.7321    0.5000    0.0000 C   0  0  0  0  0  0  0  0  0  0  0  0
    2.8660    1.0000    0.0000 C   0  0  0  0  0  0  0  0  0  0  0  0
    2.0000   -0.5000    0.0000 C   0  0  0  0  0  0  0  0  0  0  0  0
    5.2619    0.0000    0.0000 C   0  0  0  0  0  0  0  0  0  0  0  0
    1.4631   -0.8100    0.0000 H   0  0  0  0  0  0  0  0  0  0  0  0
    5.8819    0.0000    0.0000 H   0  0  0  0  0  0  0  0  0  0  0  0
    2.3291   -2.3100    0.0000 H   0  0  0  0  0  0  0  0  0  0  0  0
    2.3291    2.3100    0.0000 H   0  0  0  0  0  0  0  0  0  0  0  0
  1  9  1  0  0  0  0
  1 15  1  0  0  0  0
  2  3  1  0  0  0  0
  2 14  1  0  0  0  0
  3  7  1  0  0  0  0
  3 10  1  0  0  0  0
  4  7  2  0  0  0  0
  4 11  1  0  0  0  0
  5  8  1  0  0  0  0
  5 11  2  0  0  0  0
  6  9  1  0  0  0  0
  6 10  2  0  0  0  0
  7  8  1  0  0  0  0
  8  9  2  0  0  0  0
 10 12  1  0  0  0  0
 11 13  1  0  0  0  0
M  END
> <PUBCHEM_COMPOUND_CID>
8962

> <PUBCHEM_COMPOUND_CANONICALIZED>
1

> <PUBCHEM_CACTVS_COMPLEXITY>
157

> <PUBCHEM_CACTVS_HBOND_ACCEPTOR>
5

> <PUBCHEM_CACTVS_HBOND_DONOR>
2

> <PUBCHEM_CACTVS_ROTATABLE_BOND>
0

> <PUBCHEM_CACTVS_SUBSKEYS>
AAADcYBjoABAAAAAAAAAAAAAAAAAAWAAAAAsAAAAAAAAAFgBgAAAHAQECAAACAgBVwQF8b4YEASgAQZhZAGA0C0REKAhUDQoVBCASABASEAUBAwIAAJAACAAAAAAAAAAAAAAAAAAAAAAAAAAAAAAAAAAAA==

> <PUBCHEM_IUPAC_OPENEYE_NAME>
3-hydroxypurine-6-thiol

> <PUBCHEM_IUPAC_CAS_NAME>
3-hydroxy-6-purinethiol

> <PUBCHEM_IUPAC_NAME>
3-hydroxypurine-6-thiol

> <PUBCHEM_IUPAC_SYSTEMATIC_NAME>
3-oxidanylpurine-6-thiol

> <PUBCHEM_IUPAC_TRADITIONAL_NAME>
3-hydroxypurine-6-thiol

> <PUBCHEM_IUPAC_INCHI>
InChI=1S/C5H4N4OS/c10-9-2-8-5(11)3-4(9)7-1-6-3/h1-2,10-11H

> <PUBCHEM_IUPAC_INCHIKEY>
DGTCGOBSNKATSU-UHFFFAOYSA-N

> <PUBCHEM_XLOGP3_AA>
0.3

> <PUBCHEM_EXACT_MASS>
168.010582

> <PUBCHEM_MOLECULAR_FORMULA>
C5H4N4OS

> <PUBCHEM_MOLECULAR_WEIGHT>
168.17646

> <PUBCHEM_OPENEYE_CAN_SMILES>
C1=NC2=C(N=CN(C2=N1)O)S

> <PUBCHEM_OPENEYE_ISO_SMILES>
C1=NC2=C(N=CN(C2=N1)O)S

> <PUBCHEM_CACTVS_TPSA>
64.8

> <PUBCHEM_MONOISOTOPIC_WEIGHT>
168.010582

> <PUBCHEM_TOTAL_CHARGE>
0

> <PUBCHEM_HEAVY_ATOM_COUNT>
11

> <PUBCHEM_ATOM_DEF_STEREO_COUNT>
0

> <PUBCHEM_ATOM_UDEF_STEREO_COUNT>
0

> <PUBCHEM_BOND_DEF_STEREO_COUNT>
0

> <PUBCHEM_BOND_UDEF_STEREO_COUNT>
0

> <PUBCHEM_ISOTOPIC_ATOM_COUNT>
0

> <PUBCHEM_COMPONENT_COUNT>
1

> <PUBCHEM_CACTVS_TAUTO_COUNT>
3

> <PUBCHEM_COORDINATE_TYPE>
1
5
255

> <PUBCHEM_BONDANNOTATIONS>
3  10  8
3  7  8
4  11  8
4  7  8
5  11  8
5  8  8
6  10  8
6  9  8
8  9  8

$$$$

