4015
  -OEChem-06251223493D

 39 40  0     0  0  0  0  0  0999 V2000
    1.7773   -3.4461   -0.0619 O   0  0  0  0  0  0  0  0  0  0  0  0
   -5.9460    0.7887    0.0813 O   0  0  0  0  0  0  0  0  0  0  0  0
   -5.9518    3.4953    0.0234 O   0  0  0  0  0  0  0  0  0  0  0  0
    4.6036    2.2335    0.0150 N   0  0  0  0  0  0  0  0  0  0  0  0
   -2.3288   -2.7225   -0.0175 N   0  0  0  0  0  0  0  0  0  0  0  0
   -4.7541    2.7673    0.0076 N   0  0  0  0  0  0  0  0  0  0  0  0
    2.1158   -1.1503   -0.0299 C   0  0  0  0  0  0  0  0  0  0  0  0
   -0.2171   -2.1820   -0.0278 C   0  0  0  0  0  0  0  0  0  0  0  0
    3.7682    1.0973   -0.0002 C   0  0  0  0  0  0  0  0  0  0  0  0
    1.2539   -2.3215   -0.0455 C   0  0  0  0  0  0  0  0  0  0  0  0
   -0.9362   -0.9927    0.0039 C   0  0  0  0  0  0  0  0  0  0  0  0
   -2.2656   -1.3538    0.0100 C   0  0  0  0  0  0  0  0  0  0  0  0
    2.5412   -0.6135    1.1851 C   0  0  0  0  0  0  0  0  0  0  0  0
    2.5165   -0.5633   -1.2302 C   0  0  0  0  0  0  0  0  0  0  0  0
    3.3673    0.5103    1.2000 C   0  0  0  0  0  0  0  0  0  0  0  0
    3.3427    0.5605   -1.2154 C   0  0  0  0  0  0  0  0  0  0  0  0
   -1.0601   -3.2404   -0.0411 C   0  0  0  0  0  0  0  0  0  0  0  0
    5.5527    2.4324    1.0921 C   0  0  0  0  0  0  0  0  0  0  0  0
    4.5336    3.2102   -1.0538 C   0  0  0  0  0  0  0  0  0  0  0  0
   -3.4698   -0.6337    0.0376 C   0  0  0  0  0  0  0  0  0  0  0  0
   -3.5586    0.7220    0.0271 C   0  0  0  0  0  0  0  0  0  0  0  0
   -4.8846    1.4023    0.0403 C   0  0  0  0  0  0  0  0  0  0  0  0
   -0.5567    0.0201    0.0214 H   0  0  0  0  0  0  0  0  0  0  0  0
    2.2329   -1.0613    2.1265 H   0  0  0  0  0  0  0  0  0  0  0  0
    2.1930   -0.9750   -2.1829 H   0  0  0  0  0  0  0  0  0  0  0  0
    3.6706    0.9103    2.1633 H   0  0  0  0  0  0  0  0  0  0  0  0
    3.6459    0.9855   -2.1679 H   0  0  0  0  0  0  0  0  0  0  0  0
   -0.9038   -4.3099   -0.0647 H   0  0  0  0  0  0  0  0  0  0  0  0
   -3.1758   -3.2751   -0.0203 H   0  0  0  0  0  0  0  0  0  0  0  0
    5.0529    2.8313    1.9810 H   0  0  0  0  0  0  0  0  0  0  0  0
    6.3327    3.1467    0.8051 H   0  0  0  0  0  0  0  0  0  0  0  0
    6.0626    1.4987    1.3551 H   0  0  0  0  0  0  0  0  0  0  0  0
    4.9742    4.1650   -0.7457 H   0  0  0  0  0  0  0  0  0  0  0  0
    3.4963    3.4203   -1.3385 H   0  0  0  0  0  0  0  0  0  0  0  0
    5.0843    2.8625   -1.9341 H   0  0  0  0  0  0  0  0  0  0  0  0
   -4.3939   -1.2088    0.0599 H   0  0  0  0  0  0  0  0  0  0  0  0
   -2.6700    1.3454    0.0000 H   0  0  0  0  0  0  0  0  0  0  0  0
   -3.8931    3.3000    0.0600 H   0  0  0  0  0  0  0  0  0  0  0  0
   -6.0651    3.6602   -0.9281 H   0  0  0  0  0  0  0  0  0  0  0  0
  1 10  2  0  0  0  0
  2 22  2  0  0  0  0
  3  6  1  0  0  0  0
  3 39  1  0  0  0  0
  4  9  1  0  0  0  0
  4 18  1  0  0  0  0
  4 19  1  0  0  0  0
  5 12  1  0  0  0  0
  5 17  1  0  0  0  0
  5 29  1  0  0  0  0
  6 22  1  0  0  0  0
  6 38  1  0  0  0  0
  7 10  1  0  0  0  0
  7 13  2  0  0  0  0
  7 14  1  0  0  0  0
  8 10  1  0  0  0  0
  8 11  1  0  0  0  0
  8 17  2  0  0  0  0
  9 15  2  0  0  0  0
  9 16  1  0  0  0  0
 11 12  2  0  0  0  0
 11 23  1  0  0  0  0
 12 20  1  0  0  0  0
 13 15  1  0  0  0  0
 13 24  1  0  0  0  0
 14 16  2  0  0  0  0
 14 25  1  0  0  0  0
 15 26  1  0  0  0  0
 16 27  1  0  0  0  0
 17 28  1  0  0  0  0
 18 30  1  0  0  0  0
 18 31  1  0  0  0  0
 18 32  1  0  0  0  0
 19 33  1  0  0  0  0
 19 34  1  0  0  0  0
 19 35  1  0  0  0  0
 20 21  2  0  0  0  0
 20 36  1  0  0  0  0
 21 22  1  0  0  0  0
 21 37  1  0  0  0  0
M  END
> <PUBCHEM_COMPOUND_CID>
4015

> <PUBCHEM_CONFORMER_RMSD>
0.8

> <PUBCHEM_CONFORMER_DIVERSEORDER>
1
25
7
17
15
5
16
14
20
12
4
8
3
18
21
2
9
22
23
10
19
13
6
11
24

> <PUBCHEM_MMFF94_PARTIAL_CHARGES>
33
1 -0.57
10 0.57
11 -0.15
12 -0.2
13 -0.15
14 -0.15
15 -0.15
16 -0.15
17 -0.3
18 0.37
19 0.37
2 -0.57
20 -0.11
21 -0.14
22 0.62
23 0.15
24 0.15
25 0.15
26 0.15
27 0.15
28 0.15
29 0.27
3 -0.44
36 0.15
37 0.15
38 0.37
39 0.4
4 -0.84
5 0.03
6 -0.39
7 0.09
8 -0.09
9 0.1

> <PUBCHEM_EFFECTIVE_ROTOR_COUNT>
6

> <PUBCHEM_PHARMACOPHORE_FEATURES>
8
1 1 acceptor
1 2 acceptor
1 4 cation
1 5 cation
1 5 donor
1 6 donor
5 5 8 11 12 17 rings
6 7 9 13 14 15 16 rings

> <PUBCHEM_HEAVY_ATOM_COUNT>
22

> <PUBCHEM_ATOM_DEF_STEREO_COUNT>
0

> <PUBCHEM_ATOM_UDEF_STEREO_COUNT>
0

> <PUBCHEM_BOND_DEF_STEREO_COUNT>
0

> <PUBCHEM_BOND_UDEF_STEREO_COUNT>
1

> <PUBCHEM_ISOTOPIC_ATOM_COUNT>
0

> <PUBCHEM_COMPONENT_COUNT>
1

> <PUBCHEM_CACTVS_TAUTO_COUNT>
9

> <PUBCHEM_CONFORMER_ID>
00000FAF00000001

> <PUBCHEM_MMFF94_ENERGY>
68.3364

> <PUBCHEM_FEATURE_SELFOVERLAP>
40.594

> <PUBCHEM_SHAPE_FINGERPRINT>
10498660 4 18261104141257451640
10615611 76 17344056369675012020
10928967 22 8790604861737866485
10937287 8 18410573994089980607
10968037 57 10015589419522762703
11720765 8 17752192053943492894
12107183 9 18342190977092729170
12293681 25 6843048711513707055
12390115 104 18263910073483287499
13878862 14 17912379907246856589
13965767 371 18060145357561689822
14223995 32 18262530208388232656
14251764 38 17907859505412608804
14251764 75 18337098025826131817
14429114 114 18263928898805760449
14468879 13 18343011199438913115
14739800 52 17689171015467918064
14848178 96 18335984289371666137
15163728 17 18339912711268357998
15342168 16 18411703205574552479
16988056 13 17689156029408552663
1768 210 18264226771951432557
17810953 82 18268429212455380565
17834072 32 18411981334265213633
20238998 120 17903355150361611326
20715895 44 18409734005671161632
20775438 99 8861214300098949629
20843269 155 8430332203344085308
21304253 13 18194691599559127866
21307412 95 9727094022503761587
21864079 5 18411980226200853982
22956985 138 9788809768911584479
23559900 14 18186797011402820678
245318 6 17987499473290389469
270888 7 18410295782961367320
2838139 119 18187936014990690916
312425 83 17676202511333944359
3246875 12 18411134698397784211
3472631 163 18338797818935394733
350125 39 18196652023804862414
474 4 18341049739541225675
5104073 3 18130790057509470915
6034566 193 18338216194886702857
633830 44 18335707203867609967
7064713 232 18270684156253900060
7288768 16 18131070411694759387
76465 3 9223238446255609915
7808743 9 18338518517227849480
960060 61 6266600002583456507
9849439 229 18411142441659296945
9981440 41 18340488842255534194

> <PUBCHEM_SHAPE_MULTIPOLES>
420.2
12.97
4.45
0.99
8.23
0.61
0.01
17.73
-0.83
2.02
0.25
-1.41
0.24
-0.14

> <PUBCHEM_SHAPE_SELFOVERLAP>
896.248

> <PUBCHEM_SHAPE_VOLUME>
234.3

> <PUBCHEM_COORDINATE_TYPE>
2
5
10

$$$$

