17396278
  -OEChem-06241222553D

 38 41  0     0  0  0  0  0  0999 V2000
   -6.3229    0.7568    0.1046 O   0  0  0  0  0  0  0  0  0  0  0  0
   -0.5468   -1.7587   -0.2469 O   0  0  0  0  0  0  0  0  0  0  0  0
   -0.8505    0.5433    0.1243 N   0  0  0  0  0  0  0  0  0  0  0  0
    5.4934    0.0836   -0.0132 N   0  0  0  0  0  0  0  0  0  0  0  0
   -5.4171   -1.2952   -0.2200 N   0  0  0  0  0  0  0  0  0  0  0  0
    6.3043   -0.9222    0.3567 N   0  0  0  0  0  0  0  0  0  0  0  0
   -2.2430    0.6469    0.1267 C   0  0  0  0  0  0  0  0  0  0  0  0
   -4.4132   -0.3709   -0.0601 C   0  0  0  0  0  0  0  0  0  0  0  0
   -4.9639    0.8865    0.1386 C   0  0  0  0  0  0  0  0  0  0  0  0
   -3.0176   -0.5060   -0.0681 C   0  0  0  0  0  0  0  0  0  0  0  0
    1.3536   -0.4375   -0.0458 C   0  0  0  0  0  0  0  0  0  0  0  0
    4.1213   -0.0892   -0.0237 C   0  0  0  0  0  0  0  0  0  0  0  0
   -2.8397    1.8982    0.3239 C   0  0  0  0  0  0  0  0  0  0  0  0
   -4.2305    2.0501    0.3348 C   0  0  0  0  0  0  0  0  0  0  0  0
   -0.1216   -0.6243   -0.0580 C   0  0  0  0  0  0  0  0  0  0  0  0
    2.1857   -1.4876    0.3425 C   0  0  0  0  0  0  0  0  0  0  0  0
    1.9054    0.7869   -0.4231 C   0  0  0  0  0  0  0  0  0  0  0  0
    3.5694   -1.3134    0.3535 C   0  0  0  0  0  0  0  0  0  0  0  0
    3.2894    0.9610   -0.4121 C   0  0  0  0  0  0  0  0  0  0  0  0
   -6.5119   -0.5746   -0.1140 C   0  0  0  0  0  0  0  0  0  0  0  0
    6.1543    1.2260   -0.3579 C   0  0  0  0  0  0  0  0  0  0  0  0
   -7.9110   -1.0198   -0.1998 C   0  0  0  0  0  0  0  0  0  0  0  0
    7.4904    0.9483   -0.2022 C   0  0  0  0  0  0  0  0  0  0  0  0
    7.5229   -0.3882    0.2392 C   0  0  0  0  0  0  0  0  0  0  0  0
   -2.6457   -1.5038   -0.2262 H   0  0  0  0  0  0  0  0  0  0  0  0
   -2.2214    2.7814    0.4733 H   0  0  0  0  0  0  0  0  0  0  0  0
   -4.7019    3.0130    0.4865 H   0  0  0  0  0  0  0  0  0  0  0  0
   -0.3612    1.4131    0.3137 H   0  0  0  0  0  0  0  0  0  0  0  0
    1.7748   -2.4472    0.6450 H   0  0  0  0  0  0  0  0  0  0  0  0
    1.3006    1.6192   -0.7705 H   0  0  0  0  0  0  0  0  0  0  0  0
    4.1801   -2.1573    0.6640 H   0  0  0  0  0  0  0  0  0  0  0  0
    3.6558    1.9325   -0.7249 H   0  0  0  0  0  0  0  0  0  0  0  0
    5.6829    2.1424   -0.6817 H   0  0  0  0  0  0  0  0  0  0  0  0
   -8.4424   -0.7995    0.7307 H   0  0  0  0  0  0  0  0  0  0  0  0
   -8.4258   -0.5138   -1.0219 H   0  0  0  0  0  0  0  0  0  0  0  0
   -7.9650   -2.0983   -0.3761 H   0  0  0  0  0  0  0  0  0  0  0  0
    8.3193    1.6166   -0.3823 H   0  0  0  0  0  0  0  0  0  0  0  0
    8.3839   -0.9950    0.4802 H   0  0  0  0  0  0  0  0  0  0  0  0
  1  9  1  0  0  0  0
  1 20  1  0  0  0  0
  2 15  2  0  0  0  0
  3  7  1  0  0  0  0
  3 15  1  0  0  0  0
  3 28  1  0  0  0  0
  4  6  1  0  0  0  0
  4 12  1  0  0  0  0
  4 21  1  0  0  0  0
  5  8  1  0  0  0  0
  5 20  2  0  0  0  0
  6 24  2  0  0  0  0
  7 10  2  0  0  0  0
  7 13  1  0  0  0  0
  8  9  2  0  0  0  0
  8 10  1  0  0  0  0
  9 14  1  0  0  0  0
 10 25  1  0  0  0  0
 11 15  1  0  0  0  0
 11 16  2  0  0  0  0
 11 17  1  0  0  0  0
 12 18  2  0  0  0  0
 12 19  1  0  0  0  0
 13 14  2  0  0  0  0
 13 26  1  0  0  0  0
 14 27  1  0  0  0  0
 16 18  1  0  0  0  0
 16 29  1  0  0  0  0
 17 19  2  0  0  0  0
 17 30  1  0  0  0  0
 18 31  1  0  0  0  0
 19 32  1  0  0  0  0
 20 22  1  0  0  0  0
 21 23  2  0  0  0  0
 21 33  1  0  0  0  0
 22 34  1  0  0  0  0
 22 35  1  0  0  0  0
 22 36  1  0  0  0  0
 23 24  1  0  0  0  0
 23 37  1  0  0  0  0
 24 38  1  0  0  0  0
M  END
> <PUBCHEM_COMPOUND_CID>
17396278

> <PUBCHEM_CONFORMER_RMSD>
0.8

> <PUBCHEM_CONFORMER_DIVERSEORDER>
2
6
7
3
5
4
1

> <PUBCHEM_MMFF94_PARTIAL_CHARGES>
35
1 -0.28
10 -0.15
11 0.09
12 -0.02
13 -0.15
14 -0.15
15 0.54
16 -0.15
17 -0.15
18 -0.15
19 -0.15
2 -0.57
20 0.3
21 -0.3
22 0.18
23 -0.15
24 0.14
25 0.15
26 0.15
27 0.15
28 0.37
29 0.15
3 -0.55
30 0.15
31 0.15
32 0.15
33 0.15
37 0.15
38 0.15
4 0.59
5 -0.57
6 -0.71
7 0.12
8 0.23
9 0.14

> <PUBCHEM_EFFECTIVE_ROTOR_COUNT>
4

> <PUBCHEM_PHARMACOPHORE_FEATURES>
7
1 2 acceptor
1 3 donor
1 6 acceptor
5 1 5 8 9 20 rings
5 4 6 21 23 24 rings
6 11 12 16 17 18 19 rings
6 7 8 9 10 13 14 rings

> <PUBCHEM_HEAVY_ATOM_COUNT>
24

> <PUBCHEM_ATOM_DEF_STEREO_COUNT>
0

> <PUBCHEM_ATOM_UDEF_STEREO_COUNT>
0

> <PUBCHEM_BOND_DEF_STEREO_COUNT>
0

> <PUBCHEM_BOND_UDEF_STEREO_COUNT>
0

> <PUBCHEM_ISOTOPIC_ATOM_COUNT>
0

> <PUBCHEM_COMPONENT_COUNT>
1

> <PUBCHEM_CACTVS_TAUTO_COUNT>
2

> <PUBCHEM_CONFORMER_ID>
0109723600000002

> <PUBCHEM_MMFF94_ENERGY>
63.8293

> <PUBCHEM_FEATURE_SELFOVERLAP>
35.638

> <PUBCHEM_SHAPE_FINGERPRINT>
10 15 18202005392092991488
10050765 1 18122626320958757798
10066227 49 17313657274481304086
10299344 5 18410292510180021738
10595046 47 18411419556874781193
10730089 173 18260830397374789343
10968037 39 18410856560520757647
11315181 36 18409728465991362321
11524674 6 15791732980017106063
11719270 70 18335987540836475998
11724838 91 18341894078091743110
12166972 35 18410854343838455624
12236239 1 18411982481427657106
12516196 113 18260830401817924040
13073987 5 18337953501337253346
13533116 47 16845302686989285912
13631057 29 18335986381369152211
14123256 10 18410292502107090839
14170010 4 18202283576887369988
14251764 18 18344144791484320196
14251764 46 13398914224342623547
14849402 71 18338794508028202016
14933364 13 18333168375557567944
15131766 46 15623948493661615350
15183329 4 18410006650701097968
15419008 47 17095246929695175232
1577012 14 18339924921702124897
15840311 113 18131347480815765964
15849732 13 18413107251784533702
18335252 98 18186235134621316295
18608769 82 18335421223264451035
18681886 176 18335989692029074529
19611394 137 18057309614195141339
20281389 69 18342740719805488660
21065198 48 18341334503924470883
21130935 74 18335421330733800034
21150785 3 18410575071783464778
21267235 1 18408318886818784797
21315763 28 18411138061066838024
220451 1 14345799370017342292
22224240 67 16988844960740256874
22896161 15 18410292501590080651
23559900 14 18269559347342570993
23569917 315 18411974789295432170
28498 318 9151181947623980376
335352 9 18343297068953092214
34797466 226 17240478088362187820
350125 39 18410013229979383924
3545911 37 18410856559655639818
397830 11 16154571752526950314
4073 2 17988918930206849666
4325135 7 18409449180962416167
4340502 62 15936408953614896372
5104073 3 18198616816634003819
54446538 1 18411980256323803228
5758199 1 18343863316744999586
8209 1 18341895181771633567
9996256 80 18410294722483883118

> <PUBCHEM_SHAPE_MULTIPOLES>
462.25
22.64
1.67
0.65
4.74
0.27
0
-0.27
-0.41
-0.85
0.09
0.09
0.02
-0.92

> <PUBCHEM_SHAPE_SELFOVERLAP>
1035.603

> <PUBCHEM_SHAPE_VOLUME>
246.4

> <PUBCHEM_COORDINATE_TYPE>
2
5
10

$$$$

