7553
  -OEChem-06261202093D

 31 31  0     0  0  0  0  0  0999 V2000
    4.2567    2.0088   -0.1145 O   0  0  0  0  0  0  0  0  0  0  0  0
    1.4201   -3.6383    0.2798 O   0  0  0  0  0  0  0  0  0  0  0  0
    1.1529    0.0343    0.1162 N   0  0  0  0  0  0  0  0  0  0  0  0
    0.2496    0.9245   -0.6120 C   0  0  0  0  0  0  0  0  0  0  0  0
    2.5452    0.3405   -0.2101 C   0  0  0  0  0  0  0  0  0  0  0  0
    0.8513   -1.3633   -0.1916 C   0  0  0  0  0  0  0  0  0  0  0  0
   -1.1947    0.6363   -0.2990 C   0  0  0  0  0  0  0  0  0  0  0  0
    2.8938    1.7611    0.2047 C   0  0  0  0  0  0  0  0  0  0  0  0
    1.7589   -2.2944    0.5962 C   0  0  0  0  0  0  0  0  0  0  0  0
   -1.8906   -0.2839   -1.0707 C   0  0  0  0  0  0  0  0  0  0  0  0
   -1.8096    1.2944    0.7569 C   0  0  0  0  0  0  0  0  0  0  0  0
   -3.2286   -0.5511   -0.7808 C   0  0  0  0  0  0  0  0  0  0  0  0
   -3.1476    1.0270    1.0469 C   0  0  0  0  0  0  0  0  0  0  0  0
   -3.8571    0.1042    0.2779 C   0  0  0  0  0  0  0  0  0  0  0  0
    0.4090    0.8587   -1.6976 H   0  0  0  0  0  0  0  0  0  0  0  0
    0.4065    1.9754   -0.3491 H   0  0  0  0  0  0  0  0  0  0  0  0
    2.7575    0.1924   -1.2773 H   0  0  0  0  0  0  0  0  0  0  0  0
    3.2537   -0.2892    0.3351 H   0  0  0  0  0  0  0  0  0  0  0  0
    0.9377   -1.5808   -1.2646 H   0  0  0  0  0  0  0  0  0  0  0  0
   -0.1598   -1.6467    0.1152 H   0  0  0  0  0  0  0  0  0  0  0  0
    2.7657    1.9058    1.2824 H   0  0  0  0  0  0  0  0  0  0  0  0
    2.3237    2.5302   -0.3198 H   0  0  0  0  0  0  0  0  0  0  0  0
    1.6400   -2.1500    1.6754 H   0  0  0  0  0  0  0  0  0  0  0  0
    2.8138   -2.1985    0.3337 H   0  0  0  0  0  0  0  0  0  0  0  0
   -1.4204   -0.7908   -1.9086 H   0  0  0  0  0  0  0  0  0  0  0  0
   -1.2665    2.0129    1.3643 H   0  0  0  0  0  0  0  0  0  0  0  0
   -3.7821   -1.2669   -1.3816 H   0  0  0  0  0  0  0  0  0  0  0  0
   -3.6371    1.5368    1.8716 H   0  0  0  0  0  0  0  0  0  0  0  0
   -4.8990   -0.1034    0.5033 H   0  0  0  0  0  0  0  0  0  0  0  0
    4.3566    1.9105   -1.0769 H   0  0  0  0  0  0  0  0  0  0  0  0
    1.9988   -4.2125    0.8100 H   0  0  0  0  0  0  0  0  0  0  0  0
  1  8  1  0  0  0  0
  1 30  1  0  0  0  0
  2  9  1  0  0  0  0
  2 31  1  0  0  0  0
  3  4  1  0  0  0  0
  3  5  1  0  0  0  0
  3  6  1  0  0  0  0
  4  7  1  0  0  0  0
  4 15  1  0  0  0  0
  4 16  1  0  0  0  0
  5  8  1  0  0  0  0
  5 17  1  0  0  0  0
  5 18  1  0  0  0  0
  6  9  1  0  0  0  0
  6 19  1  0  0  0  0
  6 20  1  0  0  0  0
  7 10  2  0  0  0  0
  7 11  1  0  0  0  0
  8 21  1  0  0  0  0
  8 22  1  0  0  0  0
  9 23  1  0  0  0  0
  9 24  1  0  0  0  0
 10 12  1  0  0  0  0
 10 25  1  0  0  0  0
 11 13  2  0  0  0  0
 11 26  1  0  0  0  0
 12 14  2  0  0  0  0
 12 27  1  0  0  0  0
 13 14  1  0  0  0  0
 13 28  1  0  0  0  0
 14 29  1  0  0  0  0
M  END
> <PUBCHEM_COMPOUND_CID>
7553

> <PUBCHEM_CONFORMER_RMSD>
0.6

> <PUBCHEM_CONFORMER_DIVERSEORDER>
1
27
16
24
22
30
10
20
21
23
28
32
14
25
29
15
19
18
9
3
17
31
13
8
12
11
5
26
4
7
2
6

> <PUBCHEM_MMFF94_PARTIAL_CHARGES>
21
1 -0.68
10 -0.15
11 -0.15
12 -0.15
13 -0.15
14 -0.15
2 -0.68
25 0.15
26 0.15
27 0.15
28 0.15
29 0.15
3 -0.81
30 0.4
31 0.4
4 0.41
5 0.27
6 0.27
7 -0.14
8 0.28
9 0.28

> <PUBCHEM_EFFECTIVE_ROTOR_COUNT>
6

> <PUBCHEM_PHARMACOPHORE_FEATURES>
6
1 1 acceptor
1 1 donor
1 2 acceptor
1 2 donor
1 3 cation
6 7 10 11 12 13 14 rings

> <PUBCHEM_HEAVY_ATOM_COUNT>
14

> <PUBCHEM_ATOM_DEF_STEREO_COUNT>
0

> <PUBCHEM_ATOM_UDEF_STEREO_COUNT>
0

> <PUBCHEM_BOND_DEF_STEREO_COUNT>
0

> <PUBCHEM_BOND_UDEF_STEREO_COUNT>
0

> <PUBCHEM_ISOTOPIC_ATOM_COUNT>
0

> <PUBCHEM_COMPONENT_COUNT>
1

> <PUBCHEM_CACTVS_TAUTO_COUNT>
1

> <PUBCHEM_CONFORMER_ID>
00001D8100000001

> <PUBCHEM_MMFF94_ENERGY>
34.7708

> <PUBCHEM_FEATURE_SELFOVERLAP>
30.446

> <PUBCHEM_SHAPE_FINGERPRINT>
12202030 40 17058905918765872211
12251169 10 18117842328981970803
12346645 44 18333730195597097188
12553582 1 17834396000674016518
12932764 1 18338789143312635117
14787075 74 17828487959915061847
15207287 21 17418097564024638233
15279307 12 18333734598070522647
15309172 13 18271246010853322076
15375462 189 18187082858492019915
15669948 3 17530973475324850901
15775835 57 18186514393357920337
170605 34 18187076252521354932
17841504 4 18052816132988395619
18186145 218 18408602539850687308
19422 9 17967811660684211109
201361 129 18334569183146118376
20279233 1 16989127552318760865
204376 136 18199466576203933340
20645477 70 18199763581908993591
21499 59 18341334383839648140
21524375 3 18261675870482942780
22445834 79 18335980986425627867
2255824 54 18410570734362634438
23236772 104 18187081715877932897
23419403 2 13825128993027296946
23598291 2 18114743849079558573
23598294 1 17167868530564619231
3250762 1 17841167850129674460
458136 41 18341600521625086770
474 4 18339637841535123584
603831 33 18041574559034669845
633830 44 18261384525523868612
7097593 13 17974286826520835275
7364860 26 18336827610326436774
7615 1 17896617243809902093
81228 2 17478617811075387010
81539 233 18273217486804504302

> <PUBCHEM_SHAPE_MULTIPOLES>
271.39
6.46
2.65
0.94
0.14
2.53
-0.01
-2.7
0.45
-3.26
0.56
0.57
-0.02
-0.83

> <PUBCHEM_SHAPE_SELFOVERLAP>
542.233

> <PUBCHEM_SHAPE_VOLUME>
161.4

> <PUBCHEM_COORDINATE_TYPE>
2
5
10

$$$$

