17395486
  -OEChem-06241222502D

 35 38  0     0  0  0  0  0  0999 V2000
   10.1097    1.6572    0.0000 S   0  0  0  0  0  0  0  0  0  0  0  0
    9.3007   -0.9306    0.0000 O   0  0  0  0  0  0  0  0  0  0  0  0
    4.9889   -1.3198    0.0000 O   0  0  0  0  0  0  0  0  0  0  0  0
    4.9889    2.1907    0.0000 O   0  0  0  0  0  0  0  0  0  0  0  0
    8.0406   -2.1907    0.0000 O   0  0  0  0  0  0  0  0  0  0  0  0
    5.2619    0.4354    0.0000 N   0  0  0  0  0  0  0  0  0  0  0  0
    7.7619   -0.4306    0.0000 N   0  0  0  0  0  0  0  0  0  0  0  0
    8.3497    0.3784    0.0000 N   0  0  0  0  0  0  0  0  0  0  0  0
    6.2619    0.4354    0.0000 C   0  0  0  0  0  0  0  0  0  0  0  0
    6.7619   -0.4306    0.0000 C   0  0  0  0  0  0  0  0  0  0  0  0
    3.7320    0.9354    0.0000 C   0  0  0  0  0  0  0  0  0  0  0  0
    3.7320   -0.0646    0.0000 C   0  0  0  0  0  0  0  0  0  0  0  0
    4.6783    1.2402    0.0000 C   0  0  0  0  0  0  0  0  0  0  0  0
    4.6783   -0.3693    0.0000 C   0  0  0  0  0  0  0  0  0  0  0  0
    2.8660    1.4354    0.0000 C   0  0  0  0  0  0  0  0  0  0  0  0
    2.8660   -0.5646    0.0000 C   0  0  0  0  0  0  0  0  0  0  0  0
    8.3497   -1.2396    0.0000 C   0  0  0  0  0  0  0  0  0  0  0  0
    2.0000   -0.0646    0.0000 C   0  0  0  0  0  0  0  0  0  0  0  0
    2.0000    0.9354    0.0000 C   0  0  0  0  0  0  0  0  0  0  0  0
    9.3007    0.0694    0.0000 C   0  0  0  0  0  0  0  0  0  0  0  0
   10.1097    0.6572    0.0000 C   0  0  0  0  0  0  0  0  0  0  0  0
   11.0608    0.3482    0.0000 C   0  0  0  0  0  0  0  0  0  0  0  0
   11.6486    1.1572    0.0000 C   0  0  0  0  0  0  0  0  0  0  0  0
   11.0608    1.9662    0.0000 C   0  0  0  0  0  0  0  0  0  0  0  0
    6.8445    0.6475    0.0000 H   0  0  0  0  0  0  0  0  0  0  0  0
    6.1542    1.0460    0.0000 H   0  0  0  0  0  0  0  0  0  0  0  0
    6.1793   -0.6427    0.0000 H   0  0  0  0  0  0  0  0  0  0  0  0
    6.8695   -1.0412    0.0000 H   0  0  0  0  0  0  0  0  0  0  0  0
    2.8660    2.0554    0.0000 H   0  0  0  0  0  0  0  0  0  0  0  0
    2.8660   -1.1846    0.0000 H   0  0  0  0  0  0  0  0  0  0  0  0
    1.4631    1.2454    0.0000 H   0  0  0  0  0  0  0  0  0  0  0  0
    1.4631   -0.3746    0.0000 H   0  0  0  0  0  0  0  0  0  0  0  0
   11.2524   -0.2415    0.0000 H   0  0  0  0  0  0  0  0  0  0  0  0
   12.2686    1.1572    0.0000 H   0  0  0  0  0  0  0  0  0  0  0  0
   11.2524    2.5559    0.0000 H   0  0  0  0  0  0  0  0  0  0  0  0
  1 21  1  0  0  0  0
  1 24  1  0  0  0  0
  2 17  1  0  0  0  0
  2 20  1  0  0  0  0
  3 14  2  0  0  0  0
  4 13  2  0  0  0  0
  5 17  2  0  0  0  0
  6  9  1  0  0  0  0
  6 13  1  0  0  0  0
  6 14  1  0  0  0  0
  7  8  1  0  0  0  0
  7 10  1  0  0  0  0
  7 17  1  0  0  0  0
  8 20  2  0  0  0  0
  9 10  1  0  0  0  0
  9 25  1  0  0  0  0
  9 26  1  0  0  0  0
 10 27  1  0  0  0  0
 10 28  1  0  0  0  0
 11 12  1  0  0  0  0
 11 13  1  0  0  0  0
 11 15  2  0  0  0  0
 12 14  1  0  0  0  0
 12 16  2  0  0  0  0
 15 19  1  0  0  0  0
 15 29  1  0  0  0  0
 16 18  1  0  0  0  0
 16 30  1  0  0  0  0
 18 19  2  0  0  0  0
 18 32  1  0  0  0  0
 19 31  1  0  0  0  0
 20 21  1  0  0  0  0
 21 22  2  0  0  0  0
 22 23  1  0  0  0  0
 22 33  1  0  0  0  0
 23 24  2  0  0  0  0
 23 34  1  0  0  0  0
 24 35  1  0  0  0  0
M  END
> <PUBCHEM_COMPOUND_CID>
17395486

> <PUBCHEM_COMPOUND_CANONICALIZED>
1

> <PUBCHEM_CACTVS_COMPLEXITY>
584

> <PUBCHEM_CACTVS_HBOND_ACCEPTOR>
6

> <PUBCHEM_CACTVS_HBOND_DONOR>
0

> <PUBCHEM_CACTVS_ROTATABLE_BOND>
4

> <PUBCHEM_CACTVS_SUBSKEYS>
AAADccB7OABAAAAAAAAAAAAAAAAAAWJEAAAwAAAAAAAAAFgBwAAAHgQIAAAADADF2ASwCYMABAisAiFyGACTAIAkCBBaiBkoDNgIZrKgtRmcMQhkziGoqYediICOgAAAAAAQAAAAAAAAACAAAAAAAAAAAA==

> <PUBCHEM_IUPAC_OPENEYE_NAME>
2-[2-[2-oxo-5-(2-thienyl)-1,3,4-oxadiazol-3-yl]ethyl]isoindoline-1,3-dione

> <PUBCHEM_IUPAC_CAS_NAME>
2-[2-(2-oxo-5-thiophen-2-yl-1,3,4-oxadiazol-3-yl)ethyl]isoindole-1,3-dione

> <PUBCHEM_IUPAC_NAME>
2-[2-(2-oxo-5-thiophen-2-yl-1,3,4-oxadiazol-3-yl)ethyl]isoindole-1,3-dione

> <PUBCHEM_IUPAC_SYSTEMATIC_NAME>
2-[2-(2-oxidanylidene-5-thiophen-2-yl-1,3,4-oxadiazol-3-yl)ethyl]isoindole-1,3-dione

> <PUBCHEM_IUPAC_TRADITIONAL_NAME>
2-[2-[2-keto-5-(2-thienyl)-1,3,4-oxadiazol-3-yl]ethyl]isoindoline-1,3-quinone

> <PUBCHEM_IUPAC_INCHI>
InChI=1S/C16H11N3O4S/c20-14-10-4-1-2-5-11(10)15(21)18(14)7-8-19-16(22)23-13(17-19)12-6-3-9-24-12/h1-6,9H,7-8H2

> <PUBCHEM_IUPAC_INCHIKEY>
LOPFUIQRMNPRGE-UHFFFAOYSA-N

> <PUBCHEM_XLOGP3_AA>
2.3

> <PUBCHEM_EXACT_MASS>
341.047027

> <PUBCHEM_MOLECULAR_FORMULA>
C16H11N3O4S

> <PUBCHEM_MOLECULAR_WEIGHT>
341.34124

> <PUBCHEM_OPENEYE_CAN_SMILES>
C1=CC=C2C(=C1)C(=O)N(C2=O)CCN3C(=O)OC(=N3)C4=CC=CS4

> <PUBCHEM_OPENEYE_ISO_SMILES>
C1=CC=C2C(=C1)C(=O)N(C2=O)CCN3C(=O)OC(=N3)C4=CC=CS4

> <PUBCHEM_CACTVS_TPSA>
108

> <PUBCHEM_MONOISOTOPIC_WEIGHT>
341.047027

> <PUBCHEM_TOTAL_CHARGE>
0

> <PUBCHEM_HEAVY_ATOM_COUNT>
24

> <PUBCHEM_ATOM_DEF_STEREO_COUNT>
0

> <PUBCHEM_ATOM_UDEF_STEREO_COUNT>
0

> <PUBCHEM_BOND_DEF_STEREO_COUNT>
0

> <PUBCHEM_BOND_UDEF_STEREO_COUNT>
0

> <PUBCHEM_ISOTOPIC_ATOM_COUNT>
0

> <PUBCHEM_COMPONENT_COUNT>
1

> <PUBCHEM_CACTVS_TAUTO_COUNT>
1

> <PUBCHEM_COORDINATE_TYPE>
1
5
255

> <PUBCHEM_BONDANNOTATIONS>
1  21  8
1  24  8
11  12  8
11  15  8
12  16  8
15  19  8
16  18  8
18  19  8
2  17  8
2  20  8
21  22  8
22  23  8
23  24  8
7  17  8
7  8  8
8  20  8

$$$$

