17395344
  -OEChem-06241222492D

 33 35  0     0  0  0  0  0  0999 V2000
    2.0000    1.4214    0.0000 Cl  0  0  0  0  0  0  0  0  0  0  0  0
    8.6279   -2.1767    0.0000 O   0  0  0  0  0  0  0  0  0  0  0  0
    5.5443   -0.3833    0.0000 O   0  0  0  0  0  0  0  0  0  0  0  0
    7.6279    1.2874    0.0000 O   0  0  0  0  0  0  0  0  0  0  0  0
    7.6279   -0.4446    0.0000 N   0  0  0  0  0  0  0  0  0  0  0  0
    7.1279   -1.3106    0.0000 C   0  0  0  0  0  0  0  0  0  0  0  0
    8.6279   -0.4446    0.0000 C   0  0  0  0  0  0  0  0  0  0  0  0
    9.1279   -1.3106    0.0000 C   0  0  0  0  0  0  0  0  0  0  0  0
    7.6279   -2.1767    0.0000 C   0  0  0  0  0  0  0  0  0  0  0  0
    7.1279    0.4214    0.0000 C   0  0  0  0  0  0  0  0  0  0  0  0
    6.1279    0.4214    0.0000 C   0  0  0  0  0  0  0  0  0  0  0  0
    5.5443    1.2261    0.0000 C   0  0  0  0  0  0  0  0  0  0  0  0
    4.5981    0.9214    0.0000 C   0  0  0  0  0  0  0  0  0  0  0  0
    4.5981   -0.0786    0.0000 C   0  0  0  0  0  0  0  0  0  0  0  0
    5.8550    2.1767    0.0000 C   0  0  0  0  0  0  0  0  0  0  0  0
    3.7320    1.4214    0.0000 C   0  0  0  0  0  0  0  0  0  0  0  0
    3.7320   -0.5786    0.0000 C   0  0  0  0  0  0  0  0  0  0  0  0
    2.8660    0.9214    0.0000 C   0  0  0  0  0  0  0  0  0  0  0  0
    2.8660   -0.0786    0.0000 C   0  0  0  0  0  0  0  0  0  0  0  0
    9.2105   -0.2326    0.0000 H   0  0  0  0  0  0  0  0  0  0  0  0
    8.5202    0.1660    0.0000 H   0  0  0  0  0  0  0  0  0  0  0  0
    6.6530   -0.9121    0.0000 H   0  0  0  0  0  0  0  0  0  0  0  0
    6.6530   -1.7092    0.0000 H   0  0  0  0  0  0  0  0  0  0  0  0
    9.6028   -1.7092    0.0000 H   0  0  0  0  0  0  0  0  0  0  0  0
    9.6028   -0.9121    0.0000 H   0  0  0  0  0  0  0  0  0  0  0  0
    7.0453   -2.3887    0.0000 H   0  0  0  0  0  0  0  0  0  0  0  0
    7.7356   -2.7872    0.0000 H   0  0  0  0  0  0  0  0  0  0  0  0
    6.4443    1.9840    0.0000 H   0  0  0  0  0  0  0  0  0  0  0  0
    6.0476    2.7660    0.0000 H   0  0  0  0  0  0  0  0  0  0  0  0
    5.2656    2.3693    0.0000 H   0  0  0  0  0  0  0  0  0  0  0  0
    3.7320    2.0414    0.0000 H   0  0  0  0  0  0  0  0  0  0  0  0
    3.7320   -1.1986    0.0000 H   0  0  0  0  0  0  0  0  0  0  0  0
    2.3291   -0.3886    0.0000 H   0  0  0  0  0  0  0  0  0  0  0  0
  1 18  1  0  0  0  0
  2  8  1  0  0  0  0
  2  9  1  0  0  0  0
  3 11  1  0  0  0  0
  3 14  1  0  0  0  0
  4 10  2  0  0  0  0
  5  6  1  0  0  0  0
  5  7  1  0  0  0  0
  5 10  1  0  0  0  0
  6  9  1  0  0  0  0
  6 22  1  0  0  0  0
  6 23  1  0  0  0  0
  7  8  1  0  0  0  0
  7 20  1  0  0  0  0
  7 21  1  0  0  0  0
  8 24  1  0  0  0  0
  8 25  1  0  0  0  0
  9 26  1  0  0  0  0
  9 27  1  0  0  0  0
 10 11  1  0  0  0  0
 11 12  2  0  0  0  0
 12 13  1  0  0  0  0
 12 15  1  0  0  0  0
 13 14  2  0  0  0  0
 13 16  1  0  0  0  0
 14 17  1  0  0  0  0
 15 28  1  0  0  0  0
 15 29  1  0  0  0  0
 15 30  1  0  0  0  0
 16 18  2  0  0  0  0
 16 31  1  0  0  0  0
 17 19  2  0  0  0  0
 17 32  1  0  0  0  0
 18 19  1  0  0  0  0
 19 33  1  0  0  0  0
M  END
> <PUBCHEM_COMPOUND_CID>
17395344

> <PUBCHEM_COMPOUND_CANONICALIZED>
1

> <PUBCHEM_CACTVS_COMPLEXITY>
346

> <PUBCHEM_CACTVS_HBOND_ACCEPTOR>
3

> <PUBCHEM_CACTVS_HBOND_DONOR>
0

> <PUBCHEM_CACTVS_ROTATABLE_BOND>
1

> <PUBCHEM_CACTVS_SUBSKEYS>
AAADccByMAAEAAAAAAAAAAAAAAAAASAAAAA8QAAAAAAAAEgB8AAAHgIAAAAADAbhmCYyBsMABECIAqFSEAKCCAAkJQAIiAHODsgOJjKFtz+HOSjkxhGYqYeY3+LugCAAIAAIAAAAQABAABAAAAAAAAAAAA==

> <PUBCHEM_IUPAC_OPENEYE_NAME>
(5-chloro-3-methyl-benzofuran-2-yl)-morpholino-methanone

> <PUBCHEM_IUPAC_CAS_NAME>
(5-chloro-3-methyl-2-benzofuranyl)-(4-morpholinyl)methanone

> <PUBCHEM_IUPAC_NAME>
(5-chloro-3-methyl-1-benzofuran-2-yl)-morpholin-4-ylmethanone

> <PUBCHEM_IUPAC_SYSTEMATIC_NAME>
(5-chloranyl-3-methyl-1-benzofuran-2-yl)-morpholin-4-yl-methanone

> <PUBCHEM_IUPAC_TRADITIONAL_NAME>
(5-chloro-3-methyl-benzofuran-2-yl)-morpholino-methanone

> <PUBCHEM_IUPAC_INCHI>
InChI=1S/C14H14ClNO3/c1-9-11-8-10(15)2-3-12(11)19-13(9)14(17)16-4-6-18-7-5-16/h2-3,8H,4-7H2,1H3

> <PUBCHEM_IUPAC_INCHIKEY>
GGUQSVYWRZMSQJ-UHFFFAOYSA-N

> <PUBCHEM_XLOGP3_AA>
2.7

> <PUBCHEM_EXACT_MASS>
279.066221

> <PUBCHEM_MOLECULAR_FORMULA>
C14H14ClNO3

> <PUBCHEM_MOLECULAR_WEIGHT>
279.71886

> <PUBCHEM_OPENEYE_CAN_SMILES>
CC1=C(OC2=C1C=C(C=C2)Cl)C(=O)N3CCOCC3

> <PUBCHEM_OPENEYE_ISO_SMILES>
CC1=C(OC2=C1C=C(C=C2)Cl)C(=O)N3CCOCC3

> <PUBCHEM_CACTVS_TPSA>
42.7

> <PUBCHEM_MONOISOTOPIC_WEIGHT>
279.066221

> <PUBCHEM_TOTAL_CHARGE>
0

> <PUBCHEM_HEAVY_ATOM_COUNT>
19

> <PUBCHEM_ATOM_DEF_STEREO_COUNT>
0

> <PUBCHEM_ATOM_UDEF_STEREO_COUNT>
0

> <PUBCHEM_BOND_DEF_STEREO_COUNT>
0

> <PUBCHEM_BOND_UDEF_STEREO_COUNT>
0

> <PUBCHEM_ISOTOPIC_ATOM_COUNT>
0

> <PUBCHEM_COMPONENT_COUNT>
1

> <PUBCHEM_CACTVS_TAUTO_COUNT>
1

> <PUBCHEM_COORDINATE_TYPE>
1
5
255

> <PUBCHEM_BONDANNOTATIONS>
11  12  8
12  13  8
13  14  8
13  16  8
14  17  8
16  18  8
17  19  8
18  19  8
3  11  8
3  14  8

$$$$

