4443
  -OEChem-06261200073D

 50 51  0     1  0  0  0  0  0999 V2000
   -0.2705    0.3265   -1.8794 O   0  0  0  0  0  0  0  0  0  0  0  0
   -1.4011    3.5955    0.6163 O   0  0  0  0  0  0  0  0  0  0  0  0
   -3.4626    3.6159   -0.3112 O   0  0  0  0  0  0  0  0  0  0  0  0
   -0.9958    1.0417    0.2137 N   0  0  0  0  0  0  0  0  0  0  0  0
    4.1508   -0.1734   -0.1673 C   0  0  0  0  0  0  0  0  0  0  0  0
    3.5066    1.0184    0.5538 C   0  0  0  0  0  0  0  0  0  0  0  0
    3.2163   -1.3906   -0.1529 C   0  0  0  0  0  0  0  0  0  0  0  0
    1.2083    0.1367   -0.0165 C   0  0  0  0  0  0  0  0  0  0  0  0
    2.1338    1.3535   -0.0253 C   0  0  0  0  0  0  0  0  0  0  0  0
    1.8443   -1.0544   -0.7332 C   0  0  0  0  0  0  0  0  0  0  0  0
    5.4983   -0.5207    0.4629 C   0  0  0  0  0  0  0  0  0  0  0  0
   -0.0872    0.4961   -0.6768 C   0  0  0  0  0  0  0  0  0  0  0  0
    6.1581   -1.6765   -0.2853 C   0  0  0  0  0  0  0  0  0  0  0  0
    6.4137    0.7013    0.4792 C   0  0  0  0  0  0  0  0  0  0  0  0
   -2.3122    1.4923   -0.1765 C   0  0  1  0  0  0  0  0  0  0  0  0
   -3.4048    0.7479    0.6018 C   0  0  0  0  0  0  0  0  0  0  0  0
   -2.4610    2.9931    0.0257 C   0  0  0  0  0  0  0  0  0  0  0  0
   -3.3444   -0.7492    0.4156 C   0  0  0  0  0  0  0  0  0  0  0  0
   -4.0554   -1.3339   -0.6203 C   0  0  0  0  0  0  0  0  0  0  0  0
   -2.5789   -1.5114    1.2837 C   0  0  0  0  0  0  0  0  0  0  0  0
   -3.9996   -2.7170   -0.7926 C   0  0  0  0  0  0  0  0  0  0  0  0
   -2.5231   -2.8945    1.1113 C   0  0  0  0  0  0  0  0  0  0  0  0
   -3.2335   -3.4972    0.0732 C   0  0  0  0  0  0  0  0  0  0  0  0
    4.3114    0.1162   -1.2159 H   0  0  0  0  0  0  0  0  0  0  0  0
    4.1209    1.9198    0.4603 H   0  0  0  0  0  0  0  0  0  0  0  0
    3.4059    0.8026    1.6251 H   0  0  0  0  0  0  0  0  0  0  0  0
    3.0953   -1.7619    0.8726 H   0  0  0  0  0  0  0  0  0  0  0  0
    3.6257   -2.2129   -0.7482 H   0  0  0  0  0  0  0  0  0  0  0  0
    1.0139   -0.1576    1.0238 H   0  0  0  0  0  0  0  0  0  0  0  0
    2.2530    1.7291   -1.0503 H   0  0  0  0  0  0  0  0  0  0  0  0
    1.6874    2.1732    0.5512 H   0  0  0  0  0  0  0  0  0  0  0  0
    1.1889   -1.9310   -0.6577 H   0  0  0  0  0  0  0  0  0  0  0  0
    1.9595   -0.8451   -1.8049 H   0  0  0  0  0  0  0  0  0  0  0  0
    5.3519   -0.8387    1.5037 H   0  0  0  0  0  0  0  0  0  0  0  0
    5.6368   -2.6237   -0.1188 H   0  0  0  0  0  0  0  0  0  0  0  0
    7.1853   -1.8271    0.0659 H   0  0  0  0  0  0  0  0  0  0  0  0
    6.2021   -1.4863   -1.3631 H   0  0  0  0  0  0  0  0  0  0  0  0
    6.4778    1.1711   -0.5081 H   0  0  0  0  0  0  0  0  0  0  0  0
    7.4299    0.4178    0.7762 H   0  0  0  0  0  0  0  0  0  0  0  0
    6.0837    1.4512    1.2044 H   0  0  0  0  0  0  0  0  0  0  0  0
   -0.7196    1.1832    1.1813 H   0  0  0  0  0  0  0  0  0  0  0  0
   -2.4327    1.3145   -1.2521 H   0  0  0  0  0  0  0  0  0  0  0  0
   -3.3293    0.9812    1.6733 H   0  0  0  0  0  0  0  0  0  0  0  0
   -4.3970    1.1115    0.3024 H   0  0  0  0  0  0  0  0  0  0  0  0
   -4.6527   -0.7341   -1.3009 H   0  0  0  0  0  0  0  0  0  0  0  0
   -2.0235   -1.0536    2.0972 H   0  0  0  0  0  0  0  0  0  0  0  0
   -1.5429    4.5596    0.7289 H   0  0  0  0  0  0  0  0  0  0  0  0
   -4.5520   -3.1863   -1.6014 H   0  0  0  0  0  0  0  0  0  0  0  0
   -1.9265   -3.5022    1.7854 H   0  0  0  0  0  0  0  0  0  0  0  0
   -3.1897   -4.5741   -0.0612 H   0  0  0  0  0  0  0  0  0  0  0  0
  1 12  2  0  0  0  0
  2 17  1  0  0  0  0
  2 47  1  0  0  0  0
  3 17  2  0  0  0  0
  4 12  1  0  0  0  0
  4 15  1  0  0  0  0
  4 41  1  0  0  0  0
  5  6  1  0  0  0  0
  5  7  1  0  0  0  0
  5 11  1  0  0  0  0
  5 24  1  0  0  0  0
  6  9  1  0  0  0  0
  6 25  1  0  0  0  0
  6 26  1  0  0  0  0
  7 10  1  0  0  0  0
  7 27  1  0  0  0  0
  7 28  1  0  0  0  0
  8  9  1  0  0  0  0
  8 10  1  0  0  0  0
  8 12  1  0  0  0  0
  8 29  1  0  0  0  0
  9 30  1  0  0  0  0
  9 31  1  0  0  0  0
 10 32  1  0  0  0  0
 10 33  1  0  0  0  0
 11 13  1  0  0  0  0
 11 14  1  0  0  0  0
 11 34  1  0  0  0  0
 13 35  1  0  0  0  0
 13 36  1  0  0  0  0
 13 37  1  0  0  0  0
 14 38  1  0  0  0  0
 14 39  1  0  0  0  0
 14 40  1  0  0  0  0
 15 16  1  0  0  0  0
 15 17  1  0  0  0  0
 15 42  1  0  0  0  0
 16 18  1  0  0  0  0
 16 43  1  0  0  0  0
 16 44  1  0  0  0  0
 18 19  2  0  0  0  0
 18 20  1  0  0  0  0
 19 21  1  0  0  0  0
 19 45  1  0  0  0  0
 20 22  2  0  0  0  0
 20 46  1  0  0  0  0
 21 23  2  0  0  0  0
 21 48  1  0  0  0  0
 22 23  1  0  0  0  0
 22 49  1  0  0  0  0
 23 50  1  0  0  0  0
M  END
> <PUBCHEM_COMPOUND_CID>
4443

> <PUBCHEM_CONFORMER_RMSD>
0.8

> <PUBCHEM_CONFORMER_DIVERSEORDER>
1
67
84
39
299
311
258
61
193
333
6
297
264
185
2
235
266
303
191
260
233
211
244
152
48
331
208
5
269
163
190
168
140
271
312
98
194
57
76
101
313
96
75
54
286
170
7
71
177
281
248
320
121
32
20
35
238
83
332
22
130
225
236
200
226
280
151
104
265
114
275
187
172
198
219
186
323
188
112
232
310
9
65
250
117
276
241
289
109
292
111
267
91
24
245
137
110
296
240
294
175
125
49
3
42
18
161
106
45
259
230
237
26
52
116
159
36
317
199
325
92
252
13
63
227
228
126
301
272
141
214
328
330
298
322
53
158
218
82
295
189
268
58
148
131
196
263
179
307
77
253
70
212
223
251
207
43
329
204
79
174
291
74
68
87
50
113
221
155
138
261
118
254
132
133
205
210
243
88
234
80
69
8
44
224
287
217
257
143
316
85
55
167
30
124
324
146
306
309
183
184
94
62
154
108
10
206
150
229
216
302
176
129
215
285
128
56
231
242
59
304
305
315
202
156
162
181
107
41
134
34
300
326
90
66
12
136
165
282
288
249
256
139
277
203
274
195
23
29
119
169
4
247
201
60
72
273
270
171
89
99
28
142
149
40
255
213
178
64
16
100
105
239
327
25
46
95
81
308
220
93
153
38
145
157
197
222
86
17
78
19
246
262
122
147
173
318
209
283
73
102
182
290
97
278
135
293
319
15
284
120
51
103
27
21
164
115
127
279
14
144
33
314
192
180
31
166
160
47
11
37
321
123

> <PUBCHEM_MMFF94_PARTIAL_CHARGES>
22
1 -0.57
12 0.57
15 0.36
16 0.14
17 0.66
18 -0.14
19 -0.15
2 -0.65
20 -0.15
21 -0.15
22 -0.15
23 -0.15
3 -0.57
4 -0.73
41 0.37
45 0.15
46 0.15
47 0.5
48 0.15
49 0.15
50 0.15
8 0.06

> <PUBCHEM_EFFECTIVE_ROTOR_COUNT>
8.2

> <PUBCHEM_PHARMACOPHORE_FEATURES>
8
1 1 acceptor
1 2 acceptor
1 3 acceptor
1 4 donor
3 11 13 14 hydrophobe
3 2 3 17 anion
6 18 19 20 21 22 23 rings
6 5 6 7 8 9 10 rings

> <PUBCHEM_HEAVY_ATOM_COUNT>
23

> <PUBCHEM_ATOM_DEF_STEREO_COUNT>
0

> <PUBCHEM_ATOM_UDEF_STEREO_COUNT>
1

> <PUBCHEM_BOND_DEF_STEREO_COUNT>
0

> <PUBCHEM_BOND_UDEF_STEREO_COUNT>
0

> <PUBCHEM_ISOTOPIC_ATOM_COUNT>
0

> <PUBCHEM_COMPONENT_COUNT>
1

> <PUBCHEM_CACTVS_TAUTO_COUNT>
2

> <PUBCHEM_CONFORMER_ID>
0000115B00000001

> <PUBCHEM_MMFF94_ENERGY>
48.4125

> <PUBCHEM_FEATURE_SELFOVERLAP>
40.655

> <PUBCHEM_SHAPE_FINGERPRINT>
10366900 7 18187096064983776473
11056379 131 18337380625877928532
11370993 144 17605255445219850939
11552529 35 18412549820658339314
12107183 9 17838344334640122666
12553582 1 18123165941251408863
12633257 1 18115008754288622115
13004483 165 18264213517655709815
13544653 18 18197775505671380515
13583140 156 18040723579857973032
13675066 3 18040722489426890280
14081887 123 18410578378966396267
14251740 79 18130796654895501127
14341114 176 18411131463849592776
14565420 104 17250593844251366993
14844126 61 18413105044245573379
15183329 4 8718558198929003664
15250474 111 18200886170549447882
17844677 252 18408880746715741196
17857418 61 18342179938641681962
17980427 26 17255693413334683501
18927931 339 18411410696384064902
20681677 274 18337673005782157720
21033648 29 17604448378569193040
21065198 57 18339078293706958000
21236236 1 18411701002177370482
2303208 19 17749096804378550758
23557571 272 18334010618338637788
23559900 14 18338807710277018057
255183 313 18263627620077297937
4073 2 18411980300117196306
4214541 1 18339642347293141408
463206 1 17981886346219325155
5104073 3 18334020527666473218
5283173 99 18271823319299145861
5364581 5 18264216824870498184
550186 72 18339077082500839812
5924683 9 18409450280078573811
9709674 26 18335696182506644502

> <PUBCHEM_SHAPE_MULTIPOLES>
450.74
12.45
3.94
1.02
19.49
1.59
-0.1
-5.21
0.97
-6.38
0.29
-0.44
-0.26
0.43

> <PUBCHEM_SHAPE_SELFOVERLAP>
927.344

> <PUBCHEM_SHAPE_VOLUME>
256.9

> <PUBCHEM_COORDINATE_TYPE>
2
5
10

$$$$

