8798
  -OEChem-06261203073D

 17 17  0     0  0  0  0  0  0999 V2000
   -0.6135    1.2432    0.0013 S   0  0  0  0  0  0  0  0  0  0  0  0
    3.3640   -1.1952    0.0010 O   0  0  0  0  0  0  0  0  0  0  0  0
   -3.8840   -0.8366   -0.0002 O   0  5  0  0  0  0  0  0  0  0  0  0
   -3.5318    1.3302    0.0000 O   0  0  0  0  0  0  0  0  0  0  0  0
    1.9469    0.6833    0.0008 N   0  0  0  0  0  0  0  0  0  0  0  0
    0.3767   -1.1447   -0.0005 N   0  0  0  0  0  0  0  0  0  0  0  0
   -3.0874    0.1459   -0.0003 N   0  3  0  0  0  0  0  0  0  0  0  0
    0.6519    0.1128    0.0000 C   0  0  0  0  0  0  0  0  0  0  0  0
   -1.7061   -0.0787   -0.0004 C   0  0  0  0  0  0  0  0  0  0  0  0
   -0.9994   -1.2631   -0.0004 C   0  0  0  0  0  0  0  0  0  0  0  0
    3.1648    0.0153    0.0013 C   0  0  0  0  0  0  0  0  0  0  0  0
    4.3178    0.9876   -0.0025 C   0  0  0  0  0  0  0  0  0  0  0  0
    1.9503    1.7005    0.0008 H   0  0  0  0  0  0  0  0  0  0  0  0
   -1.4355   -2.2537   -0.0009 H   0  0  0  0  0  0  0  0  0  0  0  0
    4.2834    1.5999   -0.9080 H   0  0  0  0  0  0  0  0  0  0  0  0
    5.2641    0.4398    0.0197 H   0  0  0  0  0  0  0  0  0  0  0  0
    4.2628    1.6337    0.8785 H   0  0  0  0  0  0  0  0  0  0  0  0
  1  8  1  0  0  0  0
  1  9  1  0  0  0  0
  2 11  2  0  0  0  0
  3  7  1  0  0  0  0
  4  7  2  0  0  0  0
  5  8  1  0  0  0  0
  5 11  1  0  0  0  0
  5 13  1  0  0  0  0
  6  8  2  0  0  0  0
  6 10  1  0  0  0  0
  7  9  1  0  0  0  0
  9 10  2  0  0  0  0
 10 14  1  0  0  0  0
 11 12  1  0  0  0  0
 12 15  1  0  0  0  0
 12 16  1  0  0  0  0
 12 17  1  0  0  0  0
M  CHG  2   3  -1   7   1
M  END
> <PUBCHEM_COMPOUND_CID>
8798

> <PUBCHEM_CONFORMER_RMSD>
0.6

> <PUBCHEM_CONFORMER_DIVERSEORDER>
1
3
4
5
2

> <PUBCHEM_MMFF94_PARTIAL_CHARGES>
14
1 -0.08
10 0.08
11 0.57
12 0.06
13 0.37
14 0.15
2 -0.57
3 -0.52
4 -0.52
5 -0.49
6 -0.57
7 0.96
8 0.44
9 0.12

> <PUBCHEM_EFFECTIVE_ROTOR_COUNT>
3

> <PUBCHEM_PHARMACOPHORE_FEATURES>
6
1 2 acceptor
1 3 acceptor
1 3 anion
1 4 acceptor
1 5 donor
5 1 6 8 9 10 rings

> <PUBCHEM_HEAVY_ATOM_COUNT>
12

> <PUBCHEM_ATOM_DEF_STEREO_COUNT>
0

> <PUBCHEM_ATOM_UDEF_STEREO_COUNT>
0

> <PUBCHEM_BOND_DEF_STEREO_COUNT>
0

> <PUBCHEM_BOND_UDEF_STEREO_COUNT>
0

> <PUBCHEM_ISOTOPIC_ATOM_COUNT>
0

> <PUBCHEM_COMPONENT_COUNT>
1

> <PUBCHEM_CACTVS_TAUTO_COUNT>
3

> <PUBCHEM_CONFORMER_ID>
0000225E00000001

> <PUBCHEM_MMFF94_ENERGY>
20.7442

> <PUBCHEM_FEATURE_SELFOVERLAP>
30.528

> <PUBCHEM_SHAPE_FINGERPRINT>
11062470 55 17894629236481715552
12032990 46 18411694379142549779
12932764 1 4750875897259584556
14144814 61 18410855473271591648
14325111 11 18410575097584962528
18186145 218 18340767138871295684
190213 19 17561363971899320428
20645477 70 18261109720789702110
23402539 116 18260275148039416629
23402655 69 18333739039303953645
23463225 33 18341332275036930006
23559900 14 18333450954884004186
449060 50 18338516344386114012

> <PUBCHEM_SHAPE_MULTIPOLES>
218.25
7.3
1.38
0.58
1.93
0.01
0
-0.92
0
-0.15
0
0.04
-0.02
0

> <PUBCHEM_SHAPE_SELFOVERLAP>
435.795

> <PUBCHEM_SHAPE_VOLUME>
130

> <PUBCHEM_COORDINATE_TYPE>
2
5
10

$$$$

