10324
  -OEChem-06261204282D

 26 25  0     1  0  0  0  0  0999 V2000
    4.5981    1.3450    0.0000 O   0  0  0  0  0  0  0  0  0  0  0  0
    2.0000   -0.1550    0.0000 O   0  0  0  0  0  0  0  0  0  0  0  0
    4.5981    0.3450    0.0000 C   0  0  3  0  0  0  0  0  0  0  0  0
    3.7320   -0.1550    0.0000 C   0  0  3  0  0  0  0  0  0  0  0  0
    5.4641   -0.1550    0.0000 C   0  0  0  0  0  0  0  0  0  0  0  0
    3.7320   -1.1550    0.0000 C   0  0  0  0  0  0  0  0  0  0  0  0
    6.3301    0.3450    0.0000 C   0  0  0  0  0  0  0  0  0  0  0  0
    2.8660    0.3450    0.0000 C   0  0  0  0  0  0  0  0  0  0  0  0
    2.8660   -1.6550    0.0000 C   0  0  0  0  0  0  0  0  0  0  0  0
    7.1962   -0.1550    0.0000 C   0  0  0  0  0  0  0  0  0  0  0  0
    5.1350    0.6550    0.0000 H   0  0  0  0  0  0  0  0  0  0  0  0
    3.7320    0.4650    0.0000 H   0  0  0  0  0  0  0  0  0  0  0  0
    5.0656   -0.6299    0.0000 H   0  0  0  0  0  0  0  0  0  0  0  0
    5.8626   -0.6299    0.0000 H   0  0  0  0  0  0  0  0  0  0  0  0
    3.9441   -1.7376    0.0000 H   0  0  0  0  0  0  0  0  0  0  0  0
    4.3426   -1.0473    0.0000 H   0  0  0  0  0  0  0  0  0  0  0  0
    6.7287    0.8199    0.0000 H   0  0  0  0  0  0  0  0  0  0  0  0
    5.9316    0.8199    0.0000 H   0  0  0  0  0  0  0  0  0  0  0  0
    2.8660    0.9650    0.0000 H   0  0  0  0  0  0  0  0  0  0  0  0
    2.5560   -1.1181    0.0000 H   0  0  0  0  0  0  0  0  0  0  0  0
    2.3291   -1.9650    0.0000 H   0  0  0  0  0  0  0  0  0  0  0  0
    3.1760   -2.1919    0.0000 H   0  0  0  0  0  0  0  0  0  0  0  0
    6.8862   -0.6919    0.0000 H   0  0  0  0  0  0  0  0  0  0  0  0
    7.7331   -0.4650    0.0000 H   0  0  0  0  0  0  0  0  0  0  0  0
    7.5062    0.3819    0.0000 H   0  0  0  0  0  0  0  0  0  0  0  0
    5.1350    1.6550    0.0000 H   0  0  0  0  0  0  0  0  0  0  0  0
  1  3  1  0  0  0  0
  1 26  1  0  0  0  0
  2  8  2  0  0  0  0
  3  4  1  0  0  0  0
  3  5  1  0  0  0  0
  3 11  1  0  0  0  0
  4  6  1  0  0  0  0
  4  8  1  0  0  0  0
  4 12  1  0  0  0  0
  5  7  1  0  0  0  0
  5 13  1  0  0  0  0
  5 14  1  0  0  0  0
  6  9  1  0  0  0  0
  6 15  1  0  0  0  0
  6 16  1  0  0  0  0
  7 10  1  0  0  0  0
  7 17  1  0  0  0  0
  7 18  1  0  0  0  0
  8 19  1  0  0  0  0
  9 20  1  0  0  0  0
  9 21  1  0  0  0  0
  9 22  1  0  0  0  0
 10 23  1  0  0  0  0
 10 24  1  0  0  0  0
 10 25  1  0  0  0  0
M  END
> <PUBCHEM_COMPOUND_CID>
10324

> <PUBCHEM_COMPOUND_CANONICALIZED>
1

> <PUBCHEM_CACTVS_COMPLEXITY>
91.3

> <PUBCHEM_CACTVS_HBOND_ACCEPTOR>
2

> <PUBCHEM_CACTVS_HBOND_DONOR>
1

> <PUBCHEM_CACTVS_ROTATABLE_BOND>
5

> <PUBCHEM_CACTVS_SUBSKEYS>
AAADceBwMAAAAAAAAAAAAAAAAAAAAAAAAAAAAAAAAAAAAAAAAAAAGgAACAAADRSggAICAAAAAgAIAAgQgAAAAAAAAAAAAAEAAAAAEBYAAAAAQAAEIAAAAAEIiAAOAAAAAAAAAAAAAAAAAAAAAAAAAAAAAA==

> <PUBCHEM_IUPAC_OPENEYE_NAME>
2-ethyl-3-hydroxy-hexanal

> <PUBCHEM_IUPAC_CAS_NAME>
2-ethyl-3-hydroxyhexanal

> <PUBCHEM_IUPAC_NAME>
2-ethyl-3-hydroxyhexanal

> <PUBCHEM_IUPAC_SYSTEMATIC_NAME>
2-ethyl-3-oxidanyl-hexanal

> <PUBCHEM_IUPAC_TRADITIONAL_NAME>
2-ethyl-3-hydroxy-hexanal

> <PUBCHEM_IUPAC_INCHI>
InChI=1S/C8H16O2/c1-3-5-8(10)7(4-2)6-9/h6-8,10H,3-5H2,1-2H3

> <PUBCHEM_IUPAC_INCHIKEY>
FMBAIQMSJGQWLF-UHFFFAOYSA-N

> <PUBCHEM_XLOGP3_AA>
1.2

> <PUBCHEM_EXACT_MASS>
144.11503

> <PUBCHEM_MOLECULAR_FORMULA>
C8H16O2

> <PUBCHEM_MOLECULAR_WEIGHT>
144.21144

> <PUBCHEM_OPENEYE_CAN_SMILES>
CCCC(C(CC)C=O)O

> <PUBCHEM_OPENEYE_ISO_SMILES>
CCCC(C(CC)C=O)O

> <PUBCHEM_CACTVS_TPSA>
37.3

> <PUBCHEM_MONOISOTOPIC_WEIGHT>
144.11503

> <PUBCHEM_TOTAL_CHARGE>
0

> <PUBCHEM_HEAVY_ATOM_COUNT>
10

> <PUBCHEM_ATOM_DEF_STEREO_COUNT>
0

> <PUBCHEM_ATOM_UDEF_STEREO_COUNT>
2

> <PUBCHEM_BOND_DEF_STEREO_COUNT>
0

> <PUBCHEM_BOND_UDEF_STEREO_COUNT>
0

> <PUBCHEM_ISOTOPIC_ATOM_COUNT>
0

> <PUBCHEM_COMPONENT_COUNT>
1

> <PUBCHEM_CACTVS_TAUTO_COUNT>
2

> <PUBCHEM_COORDINATE_TYPE>
1
5
255

> <PUBCHEM_BONDANNOTATIONS>
3  1  3
4  6  3

$$$$

