12259
  -OEChem-06261206443D

 11 10  0     0  0  0  0  0  0999 V2000
    0.2492    0.5594    0.0001 O   0  0  0  0  0  0  0  0  0  0  0  0
   -1.0698   -1.2208    0.0000 O   0  5  0  0  0  0  0  0  0  0  0  0
   -2.0114    0.8002   -0.0001 O   0  0  0  0  0  0  0  0  0  0  0  0
   -1.0642    0.0107    0.0001 N   0  3  0  0  0  0  0  0  0  0  0  0
    1.2754   -0.4217    0.0000 C   0  0  0  0  0  0  0  0  0  0  0  0
    2.6208    0.2722   -0.0001 C   0  0  0  0  0  0  0  0  0  0  0  0
    1.2062   -1.0481    0.8976 H   0  0  0  0  0  0  0  0  0  0  0  0
    1.2061   -1.0479   -0.8977 H   0  0  0  0  0  0  0  0  0  0  0  0
    3.4370   -0.4558   -0.0002 H   0  0  0  0  0  0  0  0  0  0  0  0
    2.7226    0.9167   -0.8795 H   0  0  0  0  0  0  0  0  0  0  0  0
    2.7226    0.9165    0.8795 H   0  0  0  0  0  0  0  0  0  0  0  0
  1  4  1  0  0  0  0
  1  5  1  0  0  0  0
  2  4  1  0  0  0  0
  3  4  2  0  0  0  0
  5  6  1  0  0  0  0
  5  7  1  0  0  0  0
  5  8  1  0  0  0  0
  6  9  1  0  0  0  0
  6 10  1  0  0  0  0
  6 11  1  0  0  0  0
M  CHG  2   2  -1   4   1
M  END
> <PUBCHEM_COMPOUND_CID>
12259

> <PUBCHEM_CONFORMER_RMSD>
0.4

> <PUBCHEM_CONFORMER_DIVERSEORDER>
1
5
2
4
3
6

> <PUBCHEM_MMFF94_PARTIAL_CHARGES>
5
1 -0.27
2 -0.52
3 -0.52
4 1.03
5 0.28

> <PUBCHEM_EFFECTIVE_ROTOR_COUNT>
2

> <PUBCHEM_PHARMACOPHORE_FEATURES>
2
1 2 acceptor
1 3 acceptor

> <PUBCHEM_HEAVY_ATOM_COUNT>
6

> <PUBCHEM_ATOM_DEF_STEREO_COUNT>
0

> <PUBCHEM_ATOM_UDEF_STEREO_COUNT>
0

> <PUBCHEM_BOND_DEF_STEREO_COUNT>
0

> <PUBCHEM_BOND_UDEF_STEREO_COUNT>
0

> <PUBCHEM_ISOTOPIC_ATOM_COUNT>
0

> <PUBCHEM_COMPONENT_COUNT>
1

> <PUBCHEM_CACTVS_TAUTO_COUNT>
1

> <PUBCHEM_CONFORMER_ID>
00002FE300000001

> <PUBCHEM_MMFF94_ENERGY>
9.3781

> <PUBCHEM_FEATURE_SELFOVERLAP>
10.219

> <PUBCHEM_SHAPE_FINGERPRINT>
139733 1 9222962464642024738
14390081 3 18259708882661548888
16714656 1 18413386561712715220
20096714 4 18413387657003157176
21040471 1 18338517546496655590
29004967 10 14979956990830337612
5460574 1 9223230749710917824

> <PUBCHEM_SHAPE_MULTIPOLES>
100.89
3.17
0.95
0.55
1.08
0.17
0
-0.52
0
-0.33
0
0.08
0
0

> <PUBCHEM_SHAPE_SELFOVERLAP>
177.019

> <PUBCHEM_SHAPE_VOLUME>
67.4

> <PUBCHEM_COORDINATE_TYPE>
2
5
10

$$$$

