14065
  -OEChem-06241222413D

 25 24  0     0  0  0  0  0  0999 V2000
   -5.5539    0.7755   -0.1397 Cl  0  0  0  0  0  0  0  0  0  0  0  0
    3.2517   -0.4678   -0.0001 O   0  0  0  0  0  0  0  0  0  0  0  0
    2.2600    1.6141    0.0532 O   0  0  0  0  0  0  0  0  0  0  0  0
   -4.1914   -1.4899    0.0394 O   0  0  0  0  0  0  0  0  0  0  0  0
   -0.3457    0.4641    0.0395 C   0  0  0  0  0  0  0  0  0  0  0  0
   -1.6342   -0.3629    0.0715 C   0  0  0  0  0  0  0  0  0  0  0  0
    0.9090   -0.4085    0.0728 C   0  0  0  0  0  0  0  0  0  0  0  0
   -2.8700    0.5335   -0.0015 C   0  0  0  0  0  0  0  0  0  0  0  0
    2.1919    0.3926    0.0516 C   0  0  0  0  0  0  0  0  0  0  0  0
   -4.1617   -0.2649   -0.0208 C   0  0  0  0  0  0  0  0  0  0  0  0
    4.5426    0.1473   -0.0568 C   0  0  0  0  0  0  0  0  0  0  0  0
    5.6018   -0.9331   -0.1093 C   0  0  0  0  0  0  0  0  0  0  0  0
   -0.3301    1.0857   -0.8647 H   0  0  0  0  0  0  0  0  0  0  0  0
   -0.3335    1.1547    0.8922 H   0  0  0  0  0  0  0  0  0  0  0  0
   -1.6650   -0.9645    0.9882 H   0  0  0  0  0  0  0  0  0  0  0  0
   -1.6382   -1.0670   -0.7698 H   0  0  0  0  0  0  0  0  0  0  0  0
    0.9077   -1.0182    0.9834 H   0  0  0  0  0  0  0  0  0  0  0  0
    0.9099   -1.0739   -0.7982 H   0  0  0  0  0  0  0  0  0  0  0  0
   -2.8912    1.2038    0.8654 H   0  0  0  0  0  0  0  0  0  0  0  0
   -2.8299    1.1412   -0.9130 H   0  0  0  0  0  0  0  0  0  0  0  0
    4.6092    0.7747   -0.9526 H   0  0  0  0  0  0  0  0  0  0  0  0
    4.6908    0.7679    0.8340 H   0  0  0  0  0  0  0  0  0  0  0  0
    6.6036   -0.4969   -0.1534 H   0  0  0  0  0  0  0  0  0  0  0  0
    5.5363   -1.5801    0.7717 H   0  0  0  0  0  0  0  0  0  0  0  0
    5.4560   -1.5735   -0.9855 H   0  0  0  0  0  0  0  0  0  0  0  0
  1 10  1  0  0  0  0
  2  9  1  0  0  0  0
  2 11  1  0  0  0  0
  3  9  2  0  0  0  0
  4 10  2  0  0  0  0
  5  6  1  0  0  0  0
  5  7  1  0  0  0  0
  5 13  1  0  0  0  0
  5 14  1  0  0  0  0
  6  8  1  0  0  0  0
  6 15  1  0  0  0  0
  6 16  1  0  0  0  0
  7  9  1  0  0  0  0
  7 17  1  0  0  0  0
  7 18  1  0  0  0  0
  8 10  1  0  0  0  0
  8 19  1  0  0  0  0
  8 20  1  0  0  0  0
 11 12  1  0  0  0  0
 11 21  1  0  0  0  0
 11 22  1  0  0  0  0
 12 23  1  0  0  0  0
 12 24  1  0  0  0  0
 12 25  1  0  0  0  0
M  END
> <PUBCHEM_COMPOUND_CID>
14065

> <PUBCHEM_CONFORMER_RMSD>
0.8

> <PUBCHEM_CONFORMER_DIVERSEORDER>
1
218
243
233
54
23
216
97
203
267
69
154
224
11
150
51
260
33
238
228
14
235
247
15
255
269
158
209
63
248
178
19
30
81
264
222
193
131
136
217
185
197
261
257
55
241
180
207
232
80
184
138
175
52
85
263
104
249
234
141
262
74
26
194
119
56
65
147
252
196
123
250
113
254
156
40
191
219
265
45
101
160
95
133
35
16
57
90
225
140
230
59
87
86
48
29
223
171
79
166
12
145
124
36
43
126
188
108
170
168
49
173
258
213
17
144
229
220
44
120
246
165
61
155
121
187
129
77
159
75
31
164
139
109
25
200
244
58
67
96
118
94
242
99
93
6
221
186
92
231
34
60
110
130
142
5
76
112
22
41
206
176
37
151
46
179
174
62
91
28
181
239
237
21
127
161
227
24
226
102
189
163
83
9
172
135
84
4
68
195
107
20
106
27
190
105
198
132
116
205
215
39
153
18
13
38
146
204
47
183
3
256
268
111
162
199
167
169
115
50
266
98
210
114
32
66
2
192
245
240
8
42
122
72
64
177
125
134
208
82
148
202
70
117
53
251
100
10
157
103
143
89
88
71
201
212
214
236
259
211
78
7
253
137
182
128
73
149
152

> <PUBCHEM_MMFF94_PARTIAL_CHARGES>
9
1 -0.21
10 0.72
11 0.28
2 -0.43
3 -0.57
4 -0.57
7 0.06
8 0.06
9 0.66

> <PUBCHEM_EFFECTIVE_ROTOR_COUNT>
7

> <PUBCHEM_PHARMACOPHORE_FEATURES>
2
1 3 acceptor
4 5 6 7 8 hydrophobe

> <PUBCHEM_HEAVY_ATOM_COUNT>
12

> <PUBCHEM_ATOM_DEF_STEREO_COUNT>
0

> <PUBCHEM_ATOM_UDEF_STEREO_COUNT>
0

> <PUBCHEM_BOND_DEF_STEREO_COUNT>
0

> <PUBCHEM_BOND_UDEF_STEREO_COUNT>
0

> <PUBCHEM_ISOTOPIC_ATOM_COUNT>
0

> <PUBCHEM_COMPONENT_COUNT>
1

> <PUBCHEM_CACTVS_TAUTO_COUNT>
1

> <PUBCHEM_CONFORMER_ID>
000036F100000001

> <PUBCHEM_MMFF94_ENERGY>
6.2512

> <PUBCHEM_FEATURE_SELFOVERLAP>
10.148

> <PUBCHEM_SHAPE_FINGERPRINT>
10680689 15 17561365072054519957
13690532 89 18408603673737539594
14123238 8 7060375924928142393
14251731 8 18412545426954248839
14252887 29 17168134672634677198
15242439 84 18342178864799371185
17834072 33 18411979122821364540
17834072 8 18341899606226278165
17834076 25 16487254383119755225
18186145 218 17846227622299149089
200 152 18040718065272737993
20279233 1 6338958896792788445
20645477 70 18410009983765024990
20767249 13 15429757284921435825
22485316 2 18410858758932265387
23218964 4 18412265064352994813
23402539 116 18113905961479969821
23402655 69 18412547626019767413
26918003 58 18113337513815422139
42 15 18333730217192999620
42788 4 18411699889532667605

> <PUBCHEM_SHAPE_MULTIPOLES>
231.22
13.36
1.14
0.6
0.69
0.02
0
-1.63
-0.72
-0.18
0.01
-0.03
0.01
0.12

> <PUBCHEM_SHAPE_SELFOVERLAP>
420.988

> <PUBCHEM_SHAPE_VOLUME>
146.3

> <PUBCHEM_COORDINATE_TYPE>
2
5
10

$$$$

