10273
  -OEChem-06261204253D

 17 17  0     0  0  0  0  0  0999 V2000
   -1.7816    1.3979   -1.3027 O   0  0  0  0  0  0  0  0  0  0  0  0
   -0.3907   -2.7886   -0.5112 O   0  0  0  0  0  0  0  0  0  0  0  0
   -2.0012    1.5417    0.9551 O   0  0  0  0  0  0  0  0  0  0  0  0
   -1.8884   -1.4512    0.5541 O   0  0  0  0  0  0  0  0  0  0  0  0
    2.6792   -0.1898    0.0804 N   0  0  0  0  0  0  0  0  0  0  0  0
    0.0443    0.7404    0.0074 C   0  0  0  0  0  0  0  0  0  0  0  0
    0.3012   -0.6251    0.0570 C   0  0  0  0  0  0  0  0  0  0  0  0
    1.1032    1.6415   -0.0058 C   0  0  0  0  0  0  0  0  0  0  0  0
    1.6243   -1.0352    0.0918 C   0  0  0  0  0  0  0  0  0  0  0  0
    2.3904    1.1301    0.0319 C   0  0  0  0  0  0  0  0  0  0  0  0
   -1.3179    1.2556   -0.0317 C   0  0  0  0  0  0  0  0  0  0  0  0
   -0.7628   -1.6173    0.0738 C   0  0  0  0  0  0  0  0  0  0  0  0
    0.9389    2.7133   -0.0441 H   0  0  0  0  0  0  0  0  0  0  0  0
    1.9054   -2.0828    0.1434 H   0  0  0  0  0  0  0  0  0  0  0  0
    3.2510    1.7907    0.0236 H   0  0  0  0  0  0  0  0  0  0  0  0
   -2.6990    1.7452   -1.3199 H   0  0  0  0  0  0  0  0  0  0  0  0
   -1.1145   -3.4506   -0.4953 H   0  0  0  0  0  0  0  0  0  0  0  0
  1 11  1  0  0  0  0
  1 16  1  0  0  0  0
  2 12  1  0  0  0  0
  2 17  1  0  0  0  0
  3 11  2  0  0  0  0
  4 12  2  0  0  0  0
  5  9  2  0  0  0  0
  5 10  1  0  0  0  0
  6  7  2  0  0  0  0
  6  8  1  0  0  0  0
  6 11  1  0  0  0  0
  7  9  1  0  0  0  0
  7 12  1  0  0  0  0
  8 10  2  0  0  0  0
  8 13  1  0  0  0  0
  9 14  1  0  0  0  0
 10 15  1  0  0  0  0
M  END
> <PUBCHEM_COMPOUND_CID>
10273

> <PUBCHEM_CONFORMER_RMSD>
0.6

> <PUBCHEM_CONFORMER_DIVERSEORDER>
1
3
2

> <PUBCHEM_MMFF94_PARTIAL_CHARGES>
17
1 -0.65
10 0.16
11 0.63
12 0.63
13 0.15
14 0.15
15 0.15
16 0.5
17 0.5
2 -0.65
3 -0.57
4 -0.57
5 -0.62
6 0.09
7 0.09
8 -0.15
9 0.16

> <PUBCHEM_EFFECTIVE_ROTOR_COUNT>
2

> <PUBCHEM_PHARMACOPHORE_FEATURES>
8
1 1 acceptor
1 2 acceptor
1 3 acceptor
1 4 acceptor
1 5 acceptor
3 1 3 11 anion
3 2 4 12 anion
6 5 6 7 8 9 10 rings

> <PUBCHEM_HEAVY_ATOM_COUNT>
12

> <PUBCHEM_ATOM_DEF_STEREO_COUNT>
0

> <PUBCHEM_ATOM_UDEF_STEREO_COUNT>
0

> <PUBCHEM_BOND_DEF_STEREO_COUNT>
0

> <PUBCHEM_BOND_UDEF_STEREO_COUNT>
0

> <PUBCHEM_ISOTOPIC_ATOM_COUNT>
0

> <PUBCHEM_COMPONENT_COUNT>
1

> <PUBCHEM_CACTVS_TAUTO_COUNT>
1

> <PUBCHEM_CONFORMER_ID>
0000282100000001

> <PUBCHEM_MMFF94_ENERGY>
40.8882

> <PUBCHEM_FEATURE_SELFOVERLAP>
40.711

> <PUBCHEM_SHAPE_FINGERPRINT>
11206711 2 18269272353232307572
12423570 1 11866121463475535877
16945 1 18119238468062084328
18185500 45 17544468657204934706
193761 8 18410575042124875618
21040471 1 18410856602948405544
23552423 10 18056760927711798292
23559900 14 18261380180018849852
241688 4 16464174860621150346
2748010 2 18410570734156802142
5084963 1 18131628989065368416
66348 1 18411140272400014970

> <PUBCHEM_SHAPE_MULTIPOLES>
218.5
2.95
2.49
0.79
1.16
0.82
0.08
-0.44
-0.19
-1.09
0.21
-0.33
-0.22
0.04

> <PUBCHEM_SHAPE_SELFOVERLAP>
466.344

> <PUBCHEM_SHAPE_VOLUME>
119.8

> <PUBCHEM_COORDINATE_TYPE>
2
5
10

$$$$

