5050
  -OEChem-06261200293D

 47 49  0     0  0  0  0  0  0999 V2000
    0.4081    0.5191   -0.0057 O   0  0  0  0  0  0  0  0  0  0  0  0
    2.9251    0.2148   -0.0128 O   0  0  0  0  0  0  0  0  0  0  0  0
   -3.7576    2.8710    0.0151 O   0  0  0  0  0  0  0  0  0  0  0  0
   -1.3475    4.1595    0.0132 O   0  0  0  0  0  0  0  0  0  0  0  0
    3.3827    2.4841   -0.0052 O   0  0  0  0  0  0  0  0  0  0  0  0
   -3.7709    0.5840    0.0082 N   0  0  0  0  0  0  0  0  0  0  0  0
    5.9685   -2.0526   -0.0054 C   0  0  0  0  0  0  0  0  0  0  0  0
   -3.0930   -0.6448    0.0017 C   0  0  0  0  0  0  0  0  0  0  0  0
   -1.6936   -0.6633   -0.0037 C   0  0  0  0  0  0  0  0  0  0  0  0
    4.4997   -1.5993   -0.0220 C   0  0  0  0  0  0  0  0  0  0  0  0
   -0.9726    0.6194   -0.0012 C   0  0  0  0  0  0  0  0  0  0  0  0
   -3.8307   -1.8323    0.0000 C   0  0  0  0  0  0  0  0  0  0  0  0
   -1.6389    1.7894    0.0052 C   0  0  0  0  0  0  0  0  0  0  0  0
   -3.1673   -3.0571   -0.0074 C   0  0  0  0  0  0  0  0  0  0  0  0
    4.3246   -0.0853   -0.0161 C   0  0  0  0  0  0  0  0  0  0  0  0
   -1.0406   -1.9040   -0.0111 C   0  0  0  0  0  0  0  0  0  0  0  0
    6.6915   -1.6382    1.2769 C   0  0  0  0  0  0  0  0  0  0  0  0
    6.7027   -1.4810   -1.2205 C   0  0  0  0  0  0  0  0  0  0  0  0
   -3.1374    1.8090    0.0096 C   0  0  0  0  0  0  0  0  0  0  0  0
   -1.7748   -3.0930   -0.0131 C   0  0  0  0  0  0  0  0  0  0  0  0
   -0.8334    3.0463    0.0074 C   0  0  0  0  0  0  0  0  0  0  0  0
   -5.3276   -1.8151    0.0051 C   0  0  0  0  0  0  0  0  0  0  0  0
    1.1553    1.6740   -0.0039 C   0  0  0  0  0  0  0  0  0  0  0  0
    0.6384    2.9057    0.0021 C   0  0  0  0  0  0  0  0  0  0  0  0
   -3.9221   -4.3462   -0.0090 C   0  0  0  0  0  0  0  0  0  0  0  0
    2.6114    1.5359   -0.0074 C   0  0  0  0  0  0  0  0  0  0  0  0
    5.9829   -3.1475   -0.0714 H   0  0  0  0  0  0  0  0  0  0  0  0
    3.9709   -2.0271    0.8395 H   0  0  0  0  0  0  0  0  0  0  0  0
    3.9944   -2.0131   -0.9045 H   0  0  0  0  0  0  0  0  0  0  0  0
    4.7769    0.3562    0.8778 H   0  0  0  0  0  0  0  0  0  0  0  0
    4.7677    0.3652   -0.9100 H   0  0  0  0  0  0  0  0  0  0  0  0
   -4.7857    0.5858    0.0115 H   0  0  0  0  0  0  0  0  0  0  0  0
    0.0448   -1.9688   -0.0156 H   0  0  0  0  0  0  0  0  0  0  0  0
    6.8059   -0.5527    1.3565 H   0  0  0  0  0  0  0  0  0  0  0  0
    7.6952   -2.0763    1.3057 H   0  0  0  0  0  0  0  0  0  0  0  0
    6.1489   -1.9915    2.1598 H   0  0  0  0  0  0  0  0  0  0  0  0
    7.6942   -1.9394   -1.3088 H   0  0  0  0  0  0  0  0  0  0  0  0
    6.8554   -0.3996   -1.1473 H   0  0  0  0  0  0  0  0  0  0  0  0
    6.1588   -1.6940   -2.1469 H   0  0  0  0  0  0  0  0  0  0  0  0
   -1.2403   -4.0395   -0.0189 H   0  0  0  0  0  0  0  0  0  0  0  0
   -5.6919   -1.2958    0.8987 H   0  0  0  0  0  0  0  0  0  0  0  0
   -5.6979   -1.2952   -0.8857 H   0  0  0  0  0  0  0  0  0  0  0  0
   -5.8063   -2.7961    0.0070 H   0  0  0  0  0  0  0  0  0  0  0  0
    1.2301    3.8134    0.0039 H   0  0  0  0  0  0  0  0  0  0  0  0
   -4.5380   -4.4393    0.8917 H   0  0  0  0  0  0  0  0  0  0  0  0
   -4.5468   -4.4320   -0.9042 H   0  0  0  0  0  0  0  0  0  0  0  0
   -3.2440   -5.2075   -0.0159 H   0  0  0  0  0  0  0  0  0  0  0  0
  1 11  1  0  0  0  0
  1 23  1  0  0  0  0
  2 15  1  0  0  0  0
  2 26  1  0  0  0  0
  3 19  2  0  0  0  0
  4 21  2  0  0  0  0
  5 26  2  0  0  0  0
  6  8  1  0  0  0  0
  6 19  1  0  0  0  0
  6 32  1  0  0  0  0
  7 10  1  0  0  0  0
  7 17  1  0  0  0  0
  7 18  1  0  0  0  0
  7 27  1  0  0  0  0
  8  9  2  0  0  0  0
  8 12  1  0  0  0  0
  9 11  1  0  0  0  0
  9 16  1  0  0  0  0
 10 15  1  0  0  0  0
 10 28  1  0  0  0  0
 10 29  1  0  0  0  0
 11 13  2  0  0  0  0
 12 14  2  0  0  0  0
 12 22  1  0  0  0  0
 13 19  1  0  0  0  0
 13 21  1  0  0  0  0
 14 20  1  0  0  0  0
 14 25  1  0  0  0  0
 15 30  1  0  0  0  0
 15 31  1  0  0  0  0
 16 20  2  0  0  0  0
 16 33  1  0  0  0  0
 17 34  1  0  0  0  0
 17 35  1  0  0  0  0
 17 36  1  0  0  0  0
 18 37  1  0  0  0  0
 18 38  1  0  0  0  0
 18 39  1  0  0  0  0
 20 40  1  0  0  0  0
 21 24  1  0  0  0  0
 22 41  1  0  0  0  0
 22 42  1  0  0  0  0
 22 43  1  0  0  0  0
 23 24  2  0  0  0  0
 23 26  1  0  0  0  0
 24 44  1  0  0  0  0
 25 45  1  0  0  0  0
 25 46  1  0  0  0  0
 25 47  1  0  0  0  0
M  END
> <PUBCHEM_COMPOUND_CID>
5050

> <PUBCHEM_CONFORMER_RMSD>
0.8

> <PUBCHEM_CONFORMER_DIVERSEORDER>
1
18
17
3
23
7
2
11
15
20
4
8
12
25
10
5
16
14
21
13
24
22
6
9
19

> <PUBCHEM_MMFF94_PARTIAL_CHARGES>
26
1 -0.15
11 0.05
12 -0.14
13 0.03
14 -0.14
15 0.28
16 -0.15
19 0.62
2 -0.43
20 -0.15
21 0.54
22 0.14
23 0.09
24 -0.14
25 0.14
26 0.71
3 -0.57
32 0.37
33 0.15
4 -0.57
40 0.15
44 0.15
5 -0.57
6 -0.55
8 0.12
9 0.03

> <PUBCHEM_EFFECTIVE_ROTOR_COUNT>
5

> <PUBCHEM_PHARMACOPHORE_FEATURES>
10
1 1 acceptor
1 13 anion
1 3 acceptor
1 4 acceptor
1 5 acceptor
1 6 donor
3 7 17 18 hydrophobe
6 1 11 13 21 23 24 rings
6 6 8 9 11 13 19 rings
6 8 9 12 14 16 20 rings

> <PUBCHEM_HEAVY_ATOM_COUNT>
26

> <PUBCHEM_ATOM_DEF_STEREO_COUNT>
0

> <PUBCHEM_ATOM_UDEF_STEREO_COUNT>
0

> <PUBCHEM_BOND_DEF_STEREO_COUNT>
0

> <PUBCHEM_BOND_UDEF_STEREO_COUNT>
0

> <PUBCHEM_ISOTOPIC_ATOM_COUNT>
0

> <PUBCHEM_COMPONENT_COUNT>
1

> <PUBCHEM_CACTVS_TAUTO_COUNT>
5

> <PUBCHEM_CONFORMER_ID>
000013BA00000001

> <PUBCHEM_MMFF94_ENERGY>
67.0627

> <PUBCHEM_FEATURE_SELFOVERLAP>
50.796

> <PUBCHEM_SHAPE_FINGERPRINT>
10050765 1 18410855439281852308
10411042 1 18338516314290188079
10483366 6 18339656632923794797
10693767 8 17755601351818272751
10940486 97 18271516611358371052
10967382 1 17185594616646676421
1100329 8 18410291462408955505
11963148 33 18051421669631570042
12107183 9 18335688434981560003
12643181 29 18267589181783311526
12760667 363 18334859398587134607
12969540 37 17763748689354387117
13140716 1 18335136483780247104
138480 1 15888558571812756941
13911852 28 18121781626005628439
14347332 77 18413108359949314686
14790565 3 17472695205408358504
14844126 61 18340768238187933458
14866123 147 18409444826018617387
15042514 8 18410573998332051001
15230672 131 17835796779405870030
15250474 111 18272092759999337642
15320467 1 17329991807801755758
15352361 1 18410293580175861910
15439362 3 16468123202857054644
15927050 60 17542507580002793509
16120349 21 18335405886205119843
16719943 64 18195247943076510698
17492 89 18267022756536644498
19591789 44 18411418406224491817
21267235 1 18411974758881475027
21279426 13 18342187635407543639
21478907 32 18338797797824515779
21703447 108 18264781965272492720
23559900 14 18337116652761365833
23569914 152 18046943444829812783
3004659 81 18201718440911620094
335352 9 18410856581884850709
3383291 50 18409452526805652643
3421961 26 18192432970292890752
3882209 13 17324684014398204422
44062 13 18410008858061411798
4409770 3 18199194064908703589
463206 1 18270397170660425938
5104073 3 18259982648034794296
559249 180 18342180019908430954
56633871 153 18336817581905192883
6823239 73 18334304184549932186
7970288 3 18266180517645113630
9709674 26 18269552728591934122

> <PUBCHEM_SHAPE_MULTIPOLES>
500.74
13.28
5.24
0.72
23.16
0.69
0.01
-12.92
0.05
-4.68
0.03
0.86
-0.24
-0.09

> <PUBCHEM_SHAPE_SELFOVERLAP>
1080.815

> <PUBCHEM_SHAPE_VOLUME>
275

> <PUBCHEM_COORDINATE_TYPE>
2
5
10

$$$$

