13902
  -OEChem-06241222402D

 36 36  0     1  0  0  0  0  0999 V2000
    2.8660    2.0000    0.0000 C   0  0  3  0  0  0  0  0  0  0  0  0
    2.8660   -2.0000    0.0000 C   0  0  3  0  0  0  0  0  0  0  0  0
    2.8660    1.0000    0.0000 C   0  0  0  0  0  0  0  0  0  0  0  0
    2.8660   -1.0000    0.0000 C   0  0  0  0  0  0  0  0  0  0  0  0
    3.7320    2.5000    0.0000 C   0  0  0  0  0  0  0  0  0  0  0  0
    2.0000   -2.5000    0.0000 C   0  0  0  0  0  0  0  0  0  0  0  0
    2.0000    0.5000    0.0000 C   0  0  0  0  0  0  0  0  0  0  0  0
    2.0000   -0.5000    0.0000 C   0  0  0  0  0  0  0  0  0  0  0  0
    3.7320    0.5000    0.0000 C   0  0  0  0  0  0  0  0  0  0  0  0
    3.7320   -0.5000    0.0000 C   0  0  0  0  0  0  0  0  0  0  0  0
    2.0000    2.5000    0.0000 C   0  0  0  0  0  0  0  0  0  0  0  0
    3.7320   -2.5000    0.0000 C   0  0  0  0  0  0  0  0  0  0  0  0
    3.7320    3.5000    0.0000 C   0  0  0  0  0  0  0  0  0  0  0  0
    2.0000   -3.5000    0.0000 C   0  0  0  0  0  0  0  0  0  0  0  0
    2.8660   -2.6200    0.0000 H   0  0  0  0  0  0  0  0  0  0  0  0
    2.8660    2.6200    0.0000 H   0  0  0  0  0  0  0  0  0  0  0  0
    1.7880   -1.9174    0.0000 H   0  0  0  0  0  0  0  0  0  0  0  0
    1.3894   -2.6077    0.0000 H   0  0  0  0  0  0  0  0  0  0  0  0
    3.9441    1.9174    0.0000 H   0  0  0  0  0  0  0  0  0  0  0  0
    4.3426    2.6077    0.0000 H   0  0  0  0  0  0  0  0  0  0  0  0
    1.4631   -0.8100    0.0000 H   0  0  0  0  0  0  0  0  0  0  0  0
    1.4631    0.8100    0.0000 H   0  0  0  0  0  0  0  0  0  0  0  0
    4.2690   -0.8100    0.0000 H   0  0  0  0  0  0  0  0  0  0  0  0
    4.2690    0.8100    0.0000 H   0  0  0  0  0  0  0  0  0  0  0  0
    2.3100    3.0369    0.0000 H   0  0  0  0  0  0  0  0  0  0  0  0
    1.4631    2.8100    0.0000 H   0  0  0  0  0  0  0  0  0  0  0  0
    1.6900    1.9631    0.0000 H   0  0  0  0  0  0  0  0  0  0  0  0
    3.4220   -3.0369    0.0000 H   0  0  0  0  0  0  0  0  0  0  0  0
    4.2690   -2.8100    0.0000 H   0  0  0  0  0  0  0  0  0  0  0  0
    4.0420   -1.9631    0.0000 H   0  0  0  0  0  0  0  0  0  0  0  0
    4.3520    3.5000    0.0000 H   0  0  0  0  0  0  0  0  0  0  0  0
    3.7320    4.1200    0.0000 H   0  0  0  0  0  0  0  0  0  0  0  0
    1.3800   -3.5000    0.0000 H   0  0  0  0  0  0  0  0  0  0  0  0
    2.0000   -4.1200    0.0000 H   0  0  0  0  0  0  0  0  0  0  0  0
    2.6200   -3.5000    0.0000 H   0  0  0  0  0  0  0  0  0  0  0  0
    3.1120    3.5000    0.0000 H   0  0  0  0  0  0  0  0  0  0  0  0
  1  3  1  0  0  0  0
  1  5  1  0  0  0  0
  1 11  1  0  0  0  0
  1 16  1  0  0  0  0
  2  4  1  0  0  0  0
  2  6  1  0  0  0  0
  2 12  1  0  0  0  0
  2 15  1  0  0  0  0
  3  7  2  0  0  0  0
  3  9  1  0  0  0  0
  4  8  2  0  0  0  0
  4 10  1  0  0  0  0
  5 13  1  0  0  0  0
  5 19  1  0  0  0  0
  5 20  1  0  0  0  0
  6 14  1  0  0  0  0
  6 17  1  0  0  0  0
  6 18  1  0  0  0  0
  7  8  1  0  0  0  0
  7 22  1  0  0  0  0
  8 21  1  0  0  0  0
  9 10  2  0  0  0  0
  9 24  1  0  0  0  0
 10 23  1  0  0  0  0
 11 25  1  0  0  0  0
 11 26  1  0  0  0  0
 11 27  1  0  0  0  0
 12 28  1  0  0  0  0
 12 29  1  0  0  0  0
 12 30  1  0  0  0  0
 13 31  1  0  0  0  0
 13 32  1  0  0  0  0
 13 36  1  0  0  0  0
 14 33  1  0  0  0  0
 14 34  1  0  0  0  0
 14 35  1  0  0  0  0
M  END
> <PUBCHEM_COMPOUND_CID>
13902

> <PUBCHEM_COMPOUND_CANONICALIZED>
1

> <PUBCHEM_CACTVS_COMPLEXITY>
124

> <PUBCHEM_CACTVS_HBOND_ACCEPTOR>
0

> <PUBCHEM_CACTVS_HBOND_DONOR>
0

> <PUBCHEM_CACTVS_ROTATABLE_BOND>
4

> <PUBCHEM_CACTVS_SUBSKEYS>
AAADceBwAAAAAAAAAAAAAAAAAAAAAAAAAAAwAAAAAAAAAAABAAAAGAAAAAAADQCAGAAyAIAAAACAAiBCAAACAAAgAAAIiAAAAIgIICKAERCAIAAggAAIiAcAgMAOwAAAAAAAAACAAAAAAAAAAAAAAAAAAA==

> <PUBCHEM_IUPAC_OPENEYE_NAME>
1,4-disec-butylbenzene

> <PUBCHEM_IUPAC_CAS_NAME>
1,4-di(butan-2-yl)benzene

> <PUBCHEM_IUPAC_NAME>
1,4-di(butan-2-yl)benzene

> <PUBCHEM_IUPAC_SYSTEMATIC_NAME>
1,4-di(butan-2-yl)benzene

> <PUBCHEM_IUPAC_TRADITIONAL_NAME>
1,4-disec-butylbenzene

> <PUBCHEM_IUPAC_INCHI>
InChI=1S/C14H22/c1-5-11(3)13-7-9-14(10-8-13)12(4)6-2/h7-12H,5-6H2,1-4H3

> <PUBCHEM_IUPAC_INCHIKEY>
BMVSGYZZGVEXTB-UHFFFAOYSA-N

> <PUBCHEM_XLOGP3_AA>
5.3

> <PUBCHEM_EXACT_MASS>
190.172151

> <PUBCHEM_MOLECULAR_FORMULA>
C14H22

> <PUBCHEM_MOLECULAR_WEIGHT>
190.32448

> <PUBCHEM_OPENEYE_CAN_SMILES>
CCC(C)C1=CC=C(C=C1)C(C)CC

> <PUBCHEM_OPENEYE_ISO_SMILES>
CCC(C)C1=CC=C(C=C1)C(C)CC

> <PUBCHEM_CACTVS_TPSA>
0

> <PUBCHEM_MONOISOTOPIC_WEIGHT>
190.172151

> <PUBCHEM_TOTAL_CHARGE>
0

> <PUBCHEM_HEAVY_ATOM_COUNT>
14

> <PUBCHEM_ATOM_DEF_STEREO_COUNT>
0

> <PUBCHEM_ATOM_UDEF_STEREO_COUNT>
2

> <PUBCHEM_BOND_DEF_STEREO_COUNT>
0

> <PUBCHEM_BOND_UDEF_STEREO_COUNT>
0

> <PUBCHEM_ISOTOPIC_ATOM_COUNT>
0

> <PUBCHEM_COMPONENT_COUNT>
1

> <PUBCHEM_CACTVS_TAUTO_COUNT>
1

> <PUBCHEM_COORDINATE_TYPE>
1
5
255

> <PUBCHEM_BONDANNOTATIONS>
1  11  3
2  12  3
3  7  8
3  9  8
4  10  8
4  8  8
7  8  8
9  10  8

$$$$

