582808
  -OEChem-06241222442D

 17 17  0     0  0  0  0  0  0999 V2000
    4.2690   -1.6550    0.0000 S   0  0  0  0  0  0  0  0  0  0  0  0
    2.5369    1.3450    0.0000 O   0  0  0  0  0  0  0  0  0  0  0  0
    2.5369    0.3450    0.0000 N   0  0  0  0  0  0  0  0  0  0  0  0
    5.1350   -0.1550    0.0000 C   0  0  0  0  0  0  0  0  0  0  0  0
    4.2690    0.3450    0.0000 C   0  0  0  0  0  0  0  0  0  0  0  0
    5.1350   -1.1550    0.0000 C   0  0  0  0  0  0  0  0  0  0  0  0
    3.4030   -0.1550    0.0000 C   0  0  0  0  0  0  0  0  0  0  0  0
    3.4030   -1.1550    0.0000 C   0  0  0  0  0  0  0  0  0  0  0  0
    5.7456   -0.2627    0.0000 H   0  0  0  0  0  0  0  0  0  0  0  0
    5.3471    0.4276    0.0000 H   0  0  0  0  0  0  0  0  0  0  0  0
    4.6675    0.8199    0.0000 H   0  0  0  0  0  0  0  0  0  0  0  0
    3.8705    0.8199    0.0000 H   0  0  0  0  0  0  0  0  0  0  0  0
    5.3471   -1.7376    0.0000 H   0  0  0  0  0  0  0  0  0  0  0  0
    5.7456   -1.0473    0.0000 H   0  0  0  0  0  0  0  0  0  0  0  0
    2.7924   -1.0473    0.0000 H   0  0  0  0  0  0  0  0  0  0  0  0
    3.1909   -1.7376    0.0000 H   0  0  0  0  0  0  0  0  0  0  0  0
    2.0000    1.6550    0.0000 H   0  0  0  0  0  0  0  0  0  0  0  0
  1  6  1  0  0  0  0
  1  8  1  0  0  0  0
  2  3  1  0  0  0  0
  2 17  1  0  0  0  0
  3  7  2  3  0  0  0
  4  5  1  0  0  0  0
  4  6  1  0  0  0  0
  4  9  1  0  0  0  0
  4 10  1  0  0  0  0
  5  7  1  0  0  0  0
  5 11  1  0  0  0  0
  5 12  1  0  0  0  0
  6 13  1  0  0  0  0
  6 14  1  0  0  0  0
  7  8  1  0  0  0  0
  8 15  1  0  0  0  0
  8 16  1  0  0  0  0
M  END
> <PUBCHEM_COMPOUND_CID>
582808

> <PUBCHEM_COMPOUND_CANONICALIZED>
1

> <PUBCHEM_CACTVS_COMPLEXITY>
103

> <PUBCHEM_CACTVS_HBOND_ACCEPTOR>
3

> <PUBCHEM_CACTVS_HBOND_DONOR>
1

> <PUBCHEM_CACTVS_ROTATABLE_BOND>
0

> <PUBCHEM_CACTVS_SUBSKEYS>
AAADccBiIABAAAAAAAAAAAAAAAAAAAAAAAAkAAAAAAAAAAAAAAAAHAQECAAACAiFQACAAAAQAAggAQAgAAAAAAAAABAAAAAwAAAAAAIgAAAAAAAAAAAgAAAAAAAAAAAAAAAAAAAAAAAAAAAAAAAAAAAAAA==

> <PUBCHEM_IUPAC_OPENEYE_NAME>
tetrahydrothiopyran-3-one oxime

> <PUBCHEM_IUPAC_CAS_NAME>
3-thianone oxime

> <PUBCHEM_IUPAC_NAME>
N-(thian-3-ylidene)hydroxylamine

> <PUBCHEM_IUPAC_SYSTEMATIC_NAME>
N-(thian-3-ylidene)hydroxylamine

> <PUBCHEM_IUPAC_TRADITIONAL_NAME>
tetrahydrothiopyran-3-one oxime

> <PUBCHEM_IUPAC_INCHI>
InChI=1S/C5H9NOS/c7-6-5-2-1-3-8-4-5/h7H,1-4H2

> <PUBCHEM_IUPAC_INCHIKEY>
DOXKWMJZWDDLLX-UHFFFAOYSA-N

> <PUBCHEM_XLOGP3_AA>
1

> <PUBCHEM_EXACT_MASS>
131.040485

> <PUBCHEM_MOLECULAR_FORMULA>
C5H9NOS

> <PUBCHEM_MOLECULAR_WEIGHT>
131.19606

> <PUBCHEM_OPENEYE_CAN_SMILES>
C1CC(=NO)CSC1

> <PUBCHEM_OPENEYE_ISO_SMILES>
C1CC(=NO)CSC1

> <PUBCHEM_CACTVS_TPSA>
57.9

> <PUBCHEM_MONOISOTOPIC_WEIGHT>
131.040485

> <PUBCHEM_TOTAL_CHARGE>
0

> <PUBCHEM_HEAVY_ATOM_COUNT>
8

> <PUBCHEM_ATOM_DEF_STEREO_COUNT>
0

> <PUBCHEM_ATOM_UDEF_STEREO_COUNT>
0

> <PUBCHEM_BOND_DEF_STEREO_COUNT>
0

> <PUBCHEM_BOND_UDEF_STEREO_COUNT>
1

> <PUBCHEM_ISOTOPIC_ATOM_COUNT>
0

> <PUBCHEM_COMPONENT_COUNT>
1

> <PUBCHEM_CACTVS_TAUTO_COUNT>
4

> <PUBCHEM_COORDINATE_TYPE>
1
5
255

> <PUBCHEM_BONDANNOTATIONS>
3  7  1

$$$$

