17396010
  -OEChem-06241222532D

 48 50  0     0  0  0  0  0  0999 V2000
    3.0000   -0.8512    0.0000 S   0  0  0  0  0  0  0  0  0  0  0  0
    4.0000   -0.8512    0.0000 O   0  0  0  0  0  0  0  0  0  0  0  0
    2.0000   -0.8512    0.0000 O   0  0  0  0  0  0  0  0  0  0  0  0
    3.0000    0.1488    0.0000 N   0  0  0  0  0  0  0  0  0  0  0  0
    4.7320    5.1488    0.0000 N   0  0  0  0  0  0  0  0  0  0  0  0
    4.8366    6.1433    0.0000 N   0  0  0  0  0  0  0  0  0  0  0  0
    6.3147    5.4852    0.0000 N   0  0  0  0  0  0  0  0  0  0  0  0
    3.0000   -1.8512    0.0000 C   0  0  0  0  0  0  0  0  0  0  0  0
    3.8660    0.6488    0.0000 C   0  0  0  0  0  0  0  0  0  0  0  0
    3.0000   -3.8512    0.0000 C   0  0  0  0  0  0  0  0  0  0  0  0
    3.0000   -4.8512    0.0000 C   0  0  0  0  0  0  0  0  0  0  0  0
    3.8660    1.6488    0.0000 C   0  0  0  0  0  0  0  0  0  0  0  0
    2.1340   -5.3512    0.0000 C   0  0  0  0  0  0  0  0  0  0  0  0
    2.1340   -2.3512    0.0000 C   0  0  0  0  0  0  0  0  0  0  0  0
    3.8660   -2.3512    0.0000 C   0  0  0  0  0  0  0  0  0  0  0  0
    2.1340   -3.3512    0.0000 C   0  0  0  0  0  0  0  0  0  0  0  0
    3.8660   -3.3512    0.0000 C   0  0  0  0  0  0  0  0  0  0  0  0
    3.8660    3.6488    0.0000 C   0  0  0  0  0  0  0  0  0  0  0  0
    4.7320    2.1488    0.0000 C   0  0  0  0  0  0  0  0  0  0  0  0
    3.0000    2.1488    0.0000 C   0  0  0  0  0  0  0  0  0  0  0  0
    3.8660    4.6488    0.0000 C   0  0  0  0  0  0  0  0  0  0  0  0
    4.7320    3.1488    0.0000 C   0  0  0  0  0  0  0  0  0  0  0  0
    3.0000    3.1488    0.0000 C   0  0  0  0  0  0  0  0  0  0  0  0
    2.1340   -6.3512    0.0000 C   0  0  0  0  0  0  0  0  0  0  0  0
    5.6456    4.7420    0.0000 C   0  0  0  0  0  0  0  0  0  0  0  0
    5.8147    6.3512    0.0000 C   0  0  0  0  0  0  0  0  0  0  0  0
    4.0781    0.0662    0.0000 H   0  0  0  0  0  0  0  0  0  0  0  0
    4.4766    0.7564    0.0000 H   0  0  0  0  0  0  0  0  0  0  0  0
    3.2120   -5.4338    0.0000 H   0  0  0  0  0  0  0  0  0  0  0  0
    3.6106   -4.7436    0.0000 H   0  0  0  0  0  0  0  0  0  0  0  0
    2.4631    0.4588    0.0000 H   0  0  0  0  0  0  0  0  0  0  0  0
    1.9219   -4.7686    0.0000 H   0  0  0  0  0  0  0  0  0  0  0  0
    1.5234   -5.4589    0.0000 H   0  0  0  0  0  0  0  0  0  0  0  0
    1.5970   -2.0412    0.0000 H   0  0  0  0  0  0  0  0  0  0  0  0
    4.4030   -2.0412    0.0000 H   0  0  0  0  0  0  0  0  0  0  0  0
    1.5970   -3.6612    0.0000 H   0  0  0  0  0  0  0  0  0  0  0  0
    4.4030   -3.6612    0.0000 H   0  0  0  0  0  0  0  0  0  0  0  0
    5.2690    1.8388    0.0000 H   0  0  0  0  0  0  0  0  0  0  0  0
    2.4631    1.8388    0.0000 H   0  0  0  0  0  0  0  0  0  0  0  0
    3.6540    5.2314    0.0000 H   0  0  0  0  0  0  0  0  0  0  0  0
    3.2554    4.5411    0.0000 H   0  0  0  0  0  0  0  0  0  0  0  0
    5.2690    3.4588    0.0000 H   0  0  0  0  0  0  0  0  0  0  0  0
    2.4631    3.4588    0.0000 H   0  0  0  0  0  0  0  0  0  0  0  0
    1.5140   -6.3512    0.0000 H   0  0  0  0  0  0  0  0  0  0  0  0
    2.1340   -6.9712    0.0000 H   0  0  0  0  0  0  0  0  0  0  0  0
    2.7540   -6.3512    0.0000 H   0  0  0  0  0  0  0  0  0  0  0  0
    5.7745    4.1356    0.0000 H   0  0  0  0  0  0  0  0  0  0  0  0
    6.0669    6.9176    0.0000 H   0  0  0  0  0  0  0  0  0  0  0  0
  1  2  2  0  0  0  0
  1  3  2  0  0  0  0
  1  4  1  0  0  0  0
  1  8  1  0  0  0  0
  4  9  1  0  0  0  0
  4 31  1  0  0  0  0
  5  6  1  0  0  0  0
  5 21  1  0  0  0  0
  5 25  1  0  0  0  0
  6 26  2  0  0  0  0
  7 25  2  0  0  0  0
  7 26  1  0  0  0  0
  8 14  2  0  0  0  0
  8 15  1  0  0  0  0
  9 12  1  0  0  0  0
  9 27  1  0  0  0  0
  9 28  1  0  0  0  0
 10 11  1  0  0  0  0
 10 16  2  0  0  0  0
 10 17  1  0  0  0  0
 11 13  1  0  0  0  0
 11 29  1  0  0  0  0
 11 30  1  0  0  0  0
 12 19  2  0  0  0  0
 12 20  1  0  0  0  0
 13 24  1  0  0  0  0
 13 32  1  0  0  0  0
 13 33  1  0  0  0  0
 14 16  1  0  0  0  0
 14 34  1  0  0  0  0
 15 17  2  0  0  0  0
 15 35  1  0  0  0  0
 16 36  1  0  0  0  0
 17 37  1  0  0  0  0
 18 21  1  0  0  0  0
 18 22  2  0  0  0  0
 18 23  1  0  0  0  0
 19 22  1  0  0  0  0
 19 38  1  0  0  0  0
 20 23  2  0  0  0  0
 20 39  1  0  0  0  0
 21 40  1  0  0  0  0
 21 41  1  0  0  0  0
 22 42  1  0  0  0  0
 23 43  1  0  0  0  0
 24 44  1  0  0  0  0
 24 45  1  0  0  0  0
 24 46  1  0  0  0  0
 25 47  1  0  0  0  0
 26 48  1  0  0  0  0
M  END
> <PUBCHEM_COMPOUND_CID>
17396010

> <PUBCHEM_COMPOUND_CANONICALIZED>
1

> <PUBCHEM_CACTVS_COMPLEXITY>
506

> <PUBCHEM_CACTVS_HBOND_ACCEPTOR>
5

> <PUBCHEM_CACTVS_HBOND_DONOR>
1

> <PUBCHEM_CACTVS_ROTATABLE_BOND>
8

> <PUBCHEM_CACTVS_SUBSKEYS>
AAADceB7sABAAAAAAAAAAAAAAAAAAWAAAAAwYAAAAAAAAAAB0AAAHAQYQAAADADBWAQ3EYZIEAKiAiBDJHDSABswgIAdyJgIBIiIKCKAmRGEIAhogAIIiAcQgIAOUAAAAAAAAACgAAAAAAAAAAAAAAAAAA==

> <PUBCHEM_IUPAC_OPENEYE_NAME>
4-propyl-N-[[4-(1,2,4-triazol-1-ylmethyl)phenyl]methyl]benzenesulfonamide

> <PUBCHEM_IUPAC_CAS_NAME>
4-propyl-N-[[4-(1,2,4-triazol-1-ylmethyl)phenyl]methyl]benzenesulfonamide

> <PUBCHEM_IUPAC_NAME>
4-propyl-N-[[4-(1,2,4-triazol-1-ylmethyl)phenyl]methyl]benzenesulfonamide

> <PUBCHEM_IUPAC_SYSTEMATIC_NAME>
4-propyl-N-[[4-(1,2,4-triazol-1-ylmethyl)phenyl]methyl]benzenesulfonamide

> <PUBCHEM_IUPAC_TRADITIONAL_NAME>
4-propyl-N-[4-(1,2,4-triazol-1-ylmethyl)benzyl]benzenesulfonamide

> <PUBCHEM_IUPAC_INCHI>
InChI=1S/C19H22N4O2S/c1-2-3-16-8-10-19(11-9-16)26(24,25)22-12-17-4-6-18(7-5-17)13-23-15-20-14-21-23/h4-11,14-15,22H,2-3,12-13H2,1H3

> <PUBCHEM_IUPAC_INCHIKEY>
ITSALBWGNCOASW-UHFFFAOYSA-N

> <PUBCHEM_XLOGP3_AA>
3.4

> <PUBCHEM_EXACT_MASS>
370.146347

> <PUBCHEM_MOLECULAR_FORMULA>
C19H22N4O2S

> <PUBCHEM_MOLECULAR_WEIGHT>
370.46858

> <PUBCHEM_OPENEYE_CAN_SMILES>
CCCC1=CC=C(C=C1)S(=O)(=O)NCC2=CC=C(C=C2)CN3C=NC=N3

> <PUBCHEM_OPENEYE_ISO_SMILES>
CCCC1=CC=C(C=C1)S(=O)(=O)NCC2=CC=C(C=C2)CN3C=NC=N3

> <PUBCHEM_CACTVS_TPSA>
85.3

> <PUBCHEM_MONOISOTOPIC_WEIGHT>
370.146347

> <PUBCHEM_TOTAL_CHARGE>
0

> <PUBCHEM_HEAVY_ATOM_COUNT>
26

> <PUBCHEM_ATOM_DEF_STEREO_COUNT>
0

> <PUBCHEM_ATOM_UDEF_STEREO_COUNT>
0

> <PUBCHEM_BOND_DEF_STEREO_COUNT>
0

> <PUBCHEM_BOND_UDEF_STEREO_COUNT>
0

> <PUBCHEM_ISOTOPIC_ATOM_COUNT>
0

> <PUBCHEM_COMPONENT_COUNT>
1

> <PUBCHEM_CACTVS_TAUTO_COUNT>
1

> <PUBCHEM_COORDINATE_TYPE>
1
5
255

> <PUBCHEM_BONDANNOTATIONS>
10  16  8
10  17  8
12  19  8
12  20  8
14  16  8
15  17  8
18  22  8
18  23  8
19  22  8
20  23  8
5  25  8
5  6  8
6  26  8
7  25  8
7  26  8
8  14  8
8  15  8

$$$$

