4155
  -OEChem-06251223552D

 96103  0     1  0  0  0  0  0999 V2000
    9.7391   -0.3130    0.0000 O   0  0  0  0  0  0  0  0  0  0  0  0
   10.1804    0.5251    0.0000 O   0  0  0  0  0  0  0  0  0  0  0  0
    8.0473   -0.6992    0.0000 O   0  0  0  0  0  0  0  0  0  0  0  0
    6.8402   -0.6171    0.0000 O   0  0  0  0  0  0  0  0  0  0  0  0
    6.8402    3.1181    0.0000 O   0  0  0  0  0  0  0  0  0  0  0  0
   10.5570    2.6922    0.0000 O   0  0  0  0  0  0  0  0  0  0  0  0
   10.9578    3.5760    0.0000 O   0  0  0  0  0  0  0  0  0  0  0  0
    5.1081   -0.6171    0.0000 O   0  0  0  0  0  0  0  0  0  0  0  0
    4.1544   -4.5725    0.0000 O   0  0  0  0  0  0  0  0  0  0  0  0
    3.5431   -1.1058    0.0000 O   0  0  0  0  0  0  0  0  0  0  0  0
    5.6448    1.2890    0.0000 N   0  0  3  0  0  0  0  0  0  0  0  0
    4.1233   -2.7908    0.0000 N   0  0  0  0  0  0  0  0  0  0  0  0
    7.5915    1.6843    0.0000 C   0  0  3  0  0  0  0  0  0  0  0  0
    8.2698    2.2252    0.0000 C   0  0  3  0  0  0  0  0  0  0  0  0
    6.5895    1.5782    0.0000 C   0  0  3  0  0  0  0  0  0  0  0  0
    9.1156    0.4688    0.0000 C   0  0  3  0  0  0  0  0  0  0  0  0
    7.5915    0.8167    0.0000 C   0  0  3  0  0  0  0  0  0  0  0  0
    9.1156    2.0321    0.0000 C   0  0  3  0  0  0  0  0  0  0  0  0
    9.4920    1.2505    0.0000 C   0  0  3  0  0  0  0  0  0  0  0  0
    8.2698    0.2758    0.0000 C   0  0  3  0  0  0  0  0  0  0  0  0
    6.8402    0.3829    0.0000 C   0  0  3  0  0  0  0  0  0  0  0  0
    6.8402    2.1181    0.0000 C   0  0  3  0  0  0  0  0  0  0  0  0
    8.1920    3.0893    0.0000 C   0  0  0  0  0  0  0  0  0  0  0  0
    8.9898    3.4302    0.0000 C   0  0  3  0  0  0  0  0  0  0  0  0
    9.5606    2.7769    0.0000 C   0  0  3  0  0  0  0  0  0  0  0  0
   10.1369    1.5204    0.0000 C   0  0  0  0  0  0  0  0  0  0  0  0
    5.6448    0.5371    0.0000 C   0  0  0  0  0  0  0  0  0  0  0  0
   10.1369    3.0049    0.0000 C   0  0  3  0  0  0  0  0  0  0  0  0
    6.0888    0.8167    0.0000 C   0  0  0  0  0  0  0  0  0  0  0  0
    6.0888    1.6843    0.0000 C   0  0  0  0  0  0  0  0  0  0  0  0
    4.8409    1.8837    0.0000 C   0  0  0  0  0  0  0  0  0  0  0  0
    8.7803   -1.3793    0.0000 C   0  0  0  0  0  0  0  0  0  0  0  0
    3.9239    1.4848    0.0000 C   0  0  0  0  0  0  0  0  0  0  0  0
    5.9741    3.6180    0.0000 C   0  0  0  0  0  0  0  0  0  0  0  0
    5.9741   -1.1171    0.0000 C   0  0  0  0  0  0  0  0  0  0  0  0
   10.9819    1.7870    0.0000 C   0  0  0  0  0  0  0  0  0  0  0  0
   10.8737    4.5725    0.0000 C   0  0  0  0  0  0  0  0  0  0  0  0
    5.9741   -2.1171    0.0000 C   0  0  0  0  0  0  0  0  0  0  0  0
    5.1081   -2.6171    0.0000 C   0  0  0  0  0  0  0  0  0  0  0  0
    6.8402   -2.6171    0.0000 C   0  0  0  0  0  0  0  0  0  0  0  0
    5.1081   -3.6171    0.0000 C   0  0  0  0  0  0  0  0  0  0  0  0
    6.8402   -3.6171    0.0000 C   0  0  0  0  0  0  0  0  0  0  0  0
    5.9741   -4.1171    0.0000 C   0  0  0  0  0  0  0  0  0  0  0  0
    3.6849   -3.6896    0.0000 C   0  0  0  0  0  0  0  0  0  0  0  0
    3.4040   -2.0961    0.0000 C   0  0  0  0  0  0  0  0  0  0  0  0
    2.6947   -3.5504    0.0000 C   0  0  3  0  0  0  0  0  0  0  0  0
    2.5210   -2.5656    0.0000 C   0  0  0  0  0  0  0  0  0  0  0  0
    2.0000   -4.2697    0.0000 C   0  0  0  0  0  0  0  0  0  0  0  0
    7.6997    2.4689    0.0000 H   0  0  0  0  0  0  0  0  0  0  0  0
    6.4656    2.1857    0.0000 H   0  0  0  0  0  0  0  0  0  0  0  0
    7.5452    0.1984    0.0000 H   0  0  0  0  0  0  0  0  0  0  0  0
    9.7350    2.0043    0.0000 H   0  0  0  0  0  0  0  0  0  0  0  0
    7.6846    0.0710    0.0000 H   0  0  0  0  0  0  0  0  0  0  0  0
    7.3771    2.4280    0.0000 H   0  0  0  0  0  0  0  0  0  0  0  0
    8.0093    3.6817    0.0000 H   0  0  0  0  0  0  0  0  0  0  0  0
    7.5837    2.9694    0.0000 H   0  0  0  0  0  0  0  0  0  0  0  0
    8.9746    4.0501    0.0000 H   0  0  0  0  0  0  0  0  0  0  0  0
    9.8407    3.3300    0.0000 H   0  0  0  0  0  0  0  0  0  0  0  0
   10.2989    0.9219    0.0000 H   0  0  0  0  0  0  0  0  0  0  0  0
   10.7515    1.6021    0.0000 H   0  0  0  0  0  0  0  0  0  0  0  0
    5.0254    0.5636    0.0000 H   0  0  0  0  0  0  0  0  0  0  0  0
    5.5918   -0.0806    0.0000 H   0  0  0  0  0  0  0  0  0  0  0  0
   10.0588    3.6200    0.0000 H   0  0  0  0  0  0  0  0  0  0  0  0
    5.4782    0.9243    0.0000 H   0  0  0  0  0  0  0  0  0  0  0  0
    5.8768    0.2341    0.0000 H   0  0  0  0  0  0  0  0  0  0  0  0
    5.8768    2.2669    0.0000 H   0  0  0  0  0  0  0  0  0  0  0  0
    5.4782    1.5766    0.0000 H   0  0  0  0  0  0  0  0  0  0  0  0
    9.5126   -0.8902    0.0000 H   0  0  0  0  0  0  0  0  0  0  0  0
   10.7832    0.6698    0.0000 H   0  0  0  0  0  0  0  0  0  0  0  0
    5.2905    2.3106    0.0000 H   0  0  0  0  0  0  0  0  0  0  0  0
    4.4986    2.4006    0.0000 H   0  0  0  0  0  0  0  0  0  0  0  0
    8.3586   -1.8338    0.0000 H   0  0  0  0  0  0  0  0  0  0  0  0
    9.2348   -1.8010    0.0000 H   0  0  0  0  0  0  0  0  0  0  0  0
    9.2020   -0.9248    0.0000 H   0  0  0  0  0  0  0  0  0  0  0  0
    3.6765    2.0533    0.0000 H   0  0  0  0  0  0  0  0  0  0  0  0
    3.3553    1.2375    0.0000 H   0  0  0  0  0  0  0  0  0  0  0  0
    4.1712    0.9163    0.0000 H   0  0  0  0  0  0  0  0  0  0  0  0
    6.2841    4.1550    0.0000 H   0  0  0  0  0  0  0  0  0  0  0  0
    5.4372    3.9280    0.0000 H   0  0  0  0  0  0  0  0  0  0  0  0
    5.6641    3.0811    0.0000 H   0  0  0  0  0  0  0  0  0  0  0  0
   10.4206    1.5236    0.0000 H   0  0  0  0  0  0  0  0  0  0  0  0
   11.2453    1.2257    0.0000 H   0  0  0  0  0  0  0  0  0  0  0  0
   11.5431    2.0504    0.0000 H   0  0  0  0  0  0  0  0  0  0  0  0
   11.4915    4.6246    0.0000 H   0  0  0  0  0  0  0  0  0  0  0  0
   10.8215    5.1903    0.0000 H   0  0  0  0  0  0  0  0  0  0  0  0
   10.2559    4.5203    0.0000 H   0  0  0  0  0  0  0  0  0  0  0  0
    7.3771   -2.3071    0.0000 H   0  0  0  0  0  0  0  0  0  0  0  0
    4.5712   -3.9271    0.0000 H   0  0  0  0  0  0  0  0  0  0  0  0
    7.3771   -3.9271    0.0000 H   0  0  0  0  0  0  0  0  0  0  0  0
    5.9741   -4.7371    0.0000 H   0  0  0  0  0  0  0  0  0  0  0  0
    2.1018   -3.3691    0.0000 H   0  0  0  0  0  0  0  0  0  0  0  0
    2.2888   -1.9907    0.0000 H   0  0  0  0  0  0  0  0  0  0  0  0
    1.9250   -2.7365    0.0000 H   0  0  0  0  0  0  0  0  0  0  0  0
    1.5540   -3.8390    0.0000 H   0  0  0  0  0  0  0  0  0  0  0  0
    1.5693   -4.7157    0.0000 H   0  0  0  0  0  0  0  0  0  0  0  0
    2.4460   -4.7004    0.0000 H   0  0  0  0  0  0  0  0  0  0  0  0
  1 16  1  0  0  0  0
  1 68  1  0  0  0  0
  2 19  1  0  0  0  0
  2 69  1  0  0  0  0
  3 20  1  0  0  0  0
  3 32  1  0  0  0  0
  4 21  1  0  0  0  0
  4 35  1  0  0  0  0
  5 22  1  0  0  0  0
  5 34  1  0  0  0  0
  6 25  1  0  0  0  0
  6 36  1  0  0  0  0
  7 28  1  0  0  0  0
  7 37  1  0  0  0  0
  8 35  2  0  0  0  0
  9 44  2  0  0  0  0
 10 45  2  0  0  0  0
 11 15  1  0  0  0  0
 11 27  1  0  0  0  0
 11 31  1  0  0  0  0
 12 39  1  0  0  0  0
 12 44  1  0  0  0  0
 12 45  1  0  0  0  0
 13 14  1  0  0  0  0
 13 15  1  0  0  0  0
 13 17  1  0  0  0  0
 13 22  1  0  0  0  0
 14 18  1  0  0  0  0
 14 23  1  0  0  0  0
 14 49  1  0  0  0  0
 15 16  1  0  0  0  0
 15 50  1  0  0  0  0
 16 19  1  0  0  0  0
 16 20  1  0  0  0  0
 17 20  1  0  0  0  0
 17 21  1  0  0  0  0
 17 51  1  0  0  0  0
 18 19  1  0  0  0  0
 18 25  1  0  0  0  0
 18 52  1  0  0  0  0
 19 26  1  0  0  0  0
 20 53  1  0  0  0  0
 21 27  1  0  0  0  0
 21 29  1  0  0  0  0
 22 30  1  0  0  0  0
 22 54  1  0  0  0  0
 23 24  1  0  0  0  0
 23 55  1  0  0  0  0
 23 56  1  0  0  0  0
 24 25  1  0  0  0  0
 24 28  1  0  0  0  0
 24 57  1  0  0  0  0
 25 58  1  0  0  0  0
 26 28  1  0  0  0  0
 26 59  1  0  0  0  0
 26 60  1  0  0  0  0
 27 61  1  0  0  0  0
 27 62  1  0  0  0  0
 28 63  1  0  0  0  0
 29 30  1  0  0  0  0
 29 64  1  0  0  0  0
 29 65  1  0  0  0  0
 30 66  1  0  0  0  0
 30 67  1  0  0  0  0
 31 33  1  0  0  0  0
 31 70  1  0  0  0  0
 31 71  1  0  0  0  0
 32 72  1  0  0  0  0
 32 73  1  0  0  0  0
 32 74  1  0  0  0  0
 33 75  1  0  0  0  0
 33 76  1  0  0  0  0
 33 77  1  0  0  0  0
 34 78  1  0  0  0  0
 34 79  1  0  0  0  0
 34 80  1  0  0  0  0
 35 38  1  0  0  0  0
 36 81  1  0  0  0  0
 36 82  1  0  0  0  0
 36 83  1  0  0  0  0
 37 84  1  0  0  0  0
 37 85  1  0  0  0  0
 37 86  1  0  0  0  0
 38 39  1  0  0  0  0
 38 40  2  0  0  0  0
 39 41  2  0  0  0  0
 40 42  1  0  0  0  0
 40 87  1  0  0  0  0
 41 43  1  0  0  0  0
 41 88  1  0  0  0  0
 42 43  2  0  0  0  0
 42 89  1  0  0  0  0
 43 90  1  0  0  0  0
 44 46  1  0  0  0  0
 45 47  1  0  0  0  0
 46 47  1  0  0  0  0
 46 48  1  0  0  0  0
 46 91  1  0  0  0  0
 47 92  1  0  0  0  0
 47 93  1  0  0  0  0
 48 94  1  0  0  0  0
 48 95  1  0  0  0  0
 48 96  1  0  0  0  0
M  END
> <PUBCHEM_COMPOUND_CID>
4155

> <PUBCHEM_COMPOUND_CANONICALIZED>
1

> <PUBCHEM_CACTVS_COMPLEXITY>
1360

> <PUBCHEM_CACTVS_HBOND_ACCEPTOR>
11

> <PUBCHEM_CACTVS_HBOND_DONOR>
2

> <PUBCHEM_CACTVS_ROTATABLE_BOND>
9

> <PUBCHEM_CACTVS_SUBSKEYS>
AAADcfB/PAAAAAAAAAAAAAAAAAAAAeMEAAA8YMGCB4gWAGABAAAAHgAACAAAD3zhmAYyyIMABgCIAiXSWACCAAAlAgAIiAEIbMgLJjrAtZmHcYhnxCHb6cf9+P+PgAAAAAACAADSAAaUADSgAaEADSgAAA==

> <PUBCHEM_IUPAC_INCHI>
InChI=1S/C36H48N2O10/c1-7-37-17-33(48-31(41)19-10-8-9-11-22(19)38-25(39)14-18(2)30(38)40)13-12-24(45-4)35-21-15-20-23(44-3)16-34(42,26(21)27(20)46-5)36(43,32(35)37)29(47-6)28(33)35/h8-11,18,20-21,23-24,26-29,32,42-43H,7,12-17H2,1-6H3

> <PUBCHEM_IUPAC_INCHIKEY>
HSKCYUAXDSOTKT-UHFFFAOYSA-N

> <PUBCHEM_XLOGP3_AA>
0.8

> <PUBCHEM_EXACT_MASS>
668.330896

> <PUBCHEM_MOLECULAR_FORMULA>
C36H48N2O10

> <PUBCHEM_MOLECULAR_WEIGHT>
668.77372

> <PUBCHEM_OPENEYE_CAN_SMILES>
CCN1CC2(CCC(C34C2C(C(C31)(C5(CC(C6CC4C5C6OC)OC)O)O)OC)OC)OC(=O)C7=CC=CC=C7N8C(=O)CC(C8=O)C

> <PUBCHEM_OPENEYE_ISO_SMILES>
CCN1CC2(CCC(C34C2C(C(C31)(C5(CC(C6CC4C5C6OC)OC)O)O)OC)OC)OC(=O)C7=CC=CC=C7N8C(=O)CC(C8=O)C

> <PUBCHEM_CACTVS_TPSA>
144

> <PUBCHEM_MONOISOTOPIC_WEIGHT>
668.330896

> <PUBCHEM_TOTAL_CHARGE>
0

> <PUBCHEM_HEAVY_ATOM_COUNT>
48

> <PUBCHEM_ATOM_DEF_STEREO_COUNT>
0

> <PUBCHEM_ATOM_UDEF_STEREO_COUNT>
14

> <PUBCHEM_BOND_DEF_STEREO_COUNT>
0

> <PUBCHEM_BOND_UDEF_STEREO_COUNT>
0

> <PUBCHEM_ISOTOPIC_ATOM_COUNT>
0

> <PUBCHEM_COMPONENT_COUNT>
1

> <PUBCHEM_CACTVS_TAUTO_COUNT>
4

> <PUBCHEM_COORDINATE_TYPE>
1
5
255

> <PUBCHEM_BONDANNOTATIONS>
16  1  3
15  11  3
13  22  3
14  23  3
17  20  3
18  25  3
19  2  3
24  23  3
20  3  3
38  39  8
38  40  8
39  41  8
21  4  3
40  42  8
41  43  8
42  43  8
46  48  3
22  5  3
25  6  3
28  7  3

$$$$

