586196
  -OEChem-06241222453D

 35 36  0     1  0  0  0  0  0999 V2000
   -2.5137   -0.6818   -1.7147 F   0  0  0  0  0  0  0  0  0  0  0  0
   -2.2253   -2.4215   -0.4277 F   0  0  0  0  0  0  0  0  0  0  0  0
   -4.1005   -1.3063   -0.3516 F   0  0  0  0  0  0  0  0  0  0  0  0
   -2.4501   -0.8621    1.8654 O   0  0  0  0  0  0  0  0  0  0  0  0
    0.0238   -2.2603    0.5165 O   0  0  0  0  0  0  0  0  0  0  0  0
    1.4815   -0.7560   -2.1193 O   0  0  0  0  0  0  0  0  0  0  0  0
    5.5750    0.6045   -0.0961 O   0  0  0  0  0  0  0  0  0  0  0  0
   -0.7485   -0.0684    0.4462 N   0  0  0  0  0  0  0  0  0  0  0  0
   -0.4285    1.2553    0.3392 N   0  0  0  0  0  0  0  0  0  0  0  0
   -2.1918   -0.2976    0.5845 C   0  0  2  0  0  0  0  0  0  0  0  0
   -2.7882    1.1048    0.5330 C   0  0  0  0  0  0  0  0  0  0  0  0
   -1.5382    1.9181    0.4013 C   0  0  0  0  0  0  0  0  0  0  0  0
   -2.7712   -1.1977   -0.5026 C   0  0  0  0  0  0  0  0  0  0  0  0
   -1.5963    3.4072    0.3290 C   0  0  0  0  0  0  0  0  0  0  0  0
    0.2298   -1.0521    0.4235 C   0  0  0  0  0  0  0  0  0  0  0  0
   -1.6826    3.8657   -1.1122 C   0  0  0  0  0  0  0  0  0  0  0  0
    1.6316   -0.6195    0.2707 C   0  0  0  0  0  0  0  0  0  0  0  0
    2.2002   -0.4871   -0.9930 C   0  0  0  0  0  0  0  0  0  0  0  0
    2.3795   -0.3429    1.4121 C   0  0  0  0  0  0  0  0  0  0  0  0
    3.5270   -0.0749   -1.1166 C   0  0  0  0  0  0  0  0  0  0  0  0
    3.7062    0.0692    1.2885 C   0  0  0  0  0  0  0  0  0  0  0  0
    4.2801    0.2033    0.0241 C   0  0  0  0  0  0  0  0  0  0  0  0
   -3.3259    1.3893    1.4419 H   0  0  0  0  0  0  0  0  0  0  0  0
   -3.4176    1.2835   -0.3438 H   0  0  0  0  0  0  0  0  0  0  0  0
   -2.4636    3.7620    0.8949 H   0  0  0  0  0  0  0  0  0  0  0  0
   -0.6971    3.8202    0.7987 H   0  0  0  0  0  0  0  0  0  0  0  0
   -3.4119   -0.9808    1.9487 H   0  0  0  0  0  0  0  0  0  0  0  0
   -1.7168    4.9582   -1.1644 H   0  0  0  0  0  0  0  0  0  0  0  0
   -2.5810    3.4714   -1.5986 H   0  0  0  0  0  0  0  0  0  0  0  0
   -0.8164    3.5221   -1.6878 H   0  0  0  0  0  0  0  0  0  0  0  0
    1.9419   -0.4436    2.4018 H   0  0  0  0  0  0  0  0  0  0  0  0
    3.9758    0.0297   -2.1016 H   0  0  0  0  0  0  0  0  0  0  0  0
    4.2877    0.2846    2.1808 H   0  0  0  0  0  0  0  0  0  0  0  0
    2.0436   -0.6072   -2.8988 H   0  0  0  0  0  0  0  0  0  0  0  0
    5.8073    0.6429   -1.0398 H   0  0  0  0  0  0  0  0  0  0  0  0
  1 13  1  0  0  0  0
  2 13  1  0  0  0  0
  3 13  1  0  0  0  0
  4 10  1  0  0  0  0
  4 27  1  0  0  0  0
  5 15  2  0  0  0  0
  6 18  1  0  0  0  0
  6 34  1  0  0  0  0
  7 22  1  0  0  0  0
  7 35  1  0  0  0  0
  8  9  1  0  0  0  0
  8 10  1  0  0  0  0
  8 15  1  0  0  0  0
  9 12  2  0  0  0  0
 10 11  1  0  0  0  0
 10 13  1  0  0  0  0
 11 12  1  0  0  0  0
 11 23  1  0  0  0  0
 11 24  1  0  0  0  0
 12 14  1  0  0  0  0
 14 16  1  0  0  0  0
 14 25  1  0  0  0  0
 14 26  1  0  0  0  0
 15 17  1  0  0  0  0
 16 28  1  0  0  0  0
 16 29  1  0  0  0  0
 16 30  1  0  0  0  0
 17 18  2  0  0  0  0
 17 19  1  0  0  0  0
 18 20  1  0  0  0  0
 19 21  2  0  0  0  0
 19 31  1  0  0  0  0
 20 22  2  0  0  0  0
 20 32  1  0  0  0  0
 21 22  1  0  0  0  0
 21 33  1  0  0  0  0
M  END
> <PUBCHEM_COMPOUND_CID>
586196

> <PUBCHEM_CONFORMER_RMSD>
0.8

> <PUBCHEM_CONFORMER_DIVERSEORDER>
3
9
8
10
7
1
5
6
4
2

> <PUBCHEM_MMFF94_PARTIAL_CHARGES>
27
1 -0.34
10 0.58
11 0.06
12 0.33
13 1.02
14 0.06
15 0.54
17 0.09
18 0.08
19 -0.15
2 -0.34
20 -0.15
21 -0.15
22 0.08
27 0.4
3 -0.34
31 0.15
32 0.15
33 0.15
34 0.45
35 0.45
4 -0.68
5 -0.57
6 -0.53
7 -0.53
8 -0.3
9 -0.51

> <PUBCHEM_EFFECTIVE_ROTOR_COUNT>
4.6

> <PUBCHEM_PHARMACOPHORE_FEATURES>
9
1 16 hydrophobe
1 4 acceptor
1 4 donor
1 5 acceptor
1 6 donor
1 7 donor
1 9 acceptor
5 8 9 10 11 12 rings
6 17 18 19 20 21 22 rings

> <PUBCHEM_HEAVY_ATOM_COUNT>
22

> <PUBCHEM_ATOM_DEF_STEREO_COUNT>
0

> <PUBCHEM_ATOM_UDEF_STEREO_COUNT>
1

> <PUBCHEM_BOND_DEF_STEREO_COUNT>
0

> <PUBCHEM_BOND_UDEF_STEREO_COUNT>
0

> <PUBCHEM_ISOTOPIC_ATOM_COUNT>
0

> <PUBCHEM_COMPONENT_COUNT>
1

> <PUBCHEM_CACTVS_TAUTO_COUNT>
12

> <PUBCHEM_CONFORMER_ID>
0008F1D400000003

> <PUBCHEM_MMFF94_ENERGY>
52.2679

> <PUBCHEM_FEATURE_SELFOVERLAP>
45.669

> <PUBCHEM_SHAPE_FINGERPRINT>
10498660 4 18410578417573875664
10670039 82 18271228436723347556
10871710 139 18271798038573352860
11132069 177 18113337492261393168
11640471 11 17845649399262850596
11759241 127 17822578196648550300
12173636 292 18265615575089974757
12236239 1 17846785083368963762
12403814 3 17749390351521912551
124424 183 13470693633290942774
12670546 56 18412553111289201098
12788726 201 18342465871657289617
133893 2 17762608496128666865
13583140 156 17606433005758266762
13965767 371 17199101468232751828
14142880 1 18059858427871460085
14289901 80 18410292527982519802
14614273 12 18188491388458174355
14739800 52 18268723714954624184
15295992 7 13182729360190528589
15961568 22 18194128409034926808
16945 1 18410011026613649586
17134986 127 17690560114368489613
17357779 13 18114762446541339733
1813 80 18189890929595770815
18927931 339 18410564085837773150
192875 21 18059852831724089732
19868273 325 18408600340605534649
200 152 17489873700054948874
20344682 1 17749667390098164750
20510252 161 18408599292507037696
20525323 117 18200874092499426777
21524375 3 17621596546372935273
23402539 116 18409168796912705806
23557571 272 18186515505775302144
23558518 356 17983586478842079331
23559900 14 18115020922622281990
238 59 16155417474347178620
2748010 2 18265346001610046633
3268164 11 18334019397467893372
350125 39 17978502362770810187
469060 322 18270377457028985185
7615 1 17917158324324457496
77492 1 17775565334381670442
7808743 9 18339076120459508704
81228 2 18337098051627044905
9925002 15 17028550348184932508

> <PUBCHEM_SHAPE_MULTIPOLES>
397.49
7.44
2.93
1.44
7.66
2.95
-0.26
0.54
-0.19
-3.91
-0.53
0.27
-0.2
-0.01

> <PUBCHEM_SHAPE_SELFOVERLAP>
856.64

> <PUBCHEM_SHAPE_VOLUME>
221.1

> <PUBCHEM_COORDINATE_TYPE>
2
5
10

$$$$

