17395331
  -OEChem-06241222492D

 33 35  0     1  0  0  0  0  0999 V2000
    5.4071   -0.7094    0.0000 S   0  0  0  0  0  0  0  0  0  0  0  0
    3.6180    2.3784    0.0000 S   0  0  0  0  0  0  0  0  0  0  0  0
    3.6750   -2.7094    0.0000 O   0  0  0  0  0  0  0  0  0  0  0  0
    4.5411    0.7906    0.0000 O   0  0  0  0  0  0  0  0  0  0  0  0
    5.4071   -2.7094    0.0000 N   0  0  0  0  0  0  0  0  0  0  0  0
    2.8090    0.7906    0.0000 N   0  0  0  0  0  0  0  0  0  0  0  0
    2.0000    2.3784    0.0000 N   0  0  0  0  0  0  0  0  0  0  0  0
    4.5411   -1.2094    0.0000 C   0  0  3  0  0  0  0  0  0  0  0  0
    3.6750   -0.7094    0.0000 C   0  0  0  0  0  0  0  0  0  0  0  0
    4.5411   -2.2094    0.0000 C   0  0  0  0  0  0  0  0  0  0  0  0
    6.2731   -1.2094    0.0000 C   0  0  0  0  0  0  0  0  0  0  0  0
    6.2731   -2.2094    0.0000 C   0  0  0  0  0  0  0  0  0  0  0  0
    3.6750    0.2906    0.0000 C   0  0  0  0  0  0  0  0  0  0  0  0
    7.1671   -0.6748    0.0000 C   0  0  0  0  0  0  0  0  0  0  0  0
    7.1671   -2.7441    0.0000 C   0  0  0  0  0  0  0  0  0  0  0  0
    2.8090    1.7906    0.0000 C   0  0  0  0  0  0  0  0  0  0  0  0
    3.3090    3.3294    0.0000 C   0  0  0  0  0  0  0  0  0  0  0  0
    2.3090    3.3294    0.0000 C   0  0  0  0  0  0  0  0  0  0  0  0
    8.0731   -1.1886    0.0000 C   0  0  0  0  0  0  0  0  0  0  0  0
    8.0731   -2.2302    0.0000 C   0  0  0  0  0  0  0  0  0  0  0  0
    4.5411   -0.5894    0.0000 H   0  0  0  0  0  0  0  0  0  0  0  0
    3.0645   -0.6018    0.0000 H   0  0  0  0  0  0  0  0  0  0  0  0
    3.4630   -1.2920    0.0000 H   0  0  0  0  0  0  0  0  0  0  0  0
    5.4071   -3.3294    0.0000 H   0  0  0  0  0  0  0  0  0  0  0  0
    2.2721    0.4806    0.0000 H   0  0  0  0  0  0  0  0  0  0  0  0
    7.1599   -0.0548    0.0000 H   0  0  0  0  0  0  0  0  0  0  0  0
    7.1599   -3.3640    0.0000 H   0  0  0  0  0  0  0  0  0  0  0  0
    3.9155    3.4583    0.0000 H   0  0  0  0  0  0  0  0  0  0  0  0
    3.2442    3.9460    0.0000 H   0  0  0  0  0  0  0  0  0  0  0  0
    2.3738    3.9460    0.0000 H   0  0  0  0  0  0  0  0  0  0  0  0
    1.7026    3.4583    0.0000 H   0  0  0  0  0  0  0  0  0  0  0  0
    8.6089   -0.8765    0.0000 H   0  0  0  0  0  0  0  0  0  0  0  0
    8.6089   -2.5423    0.0000 H   0  0  0  0  0  0  0  0  0  0  0  0
  1  8  1  0  0  0  0
  1 11  1  0  0  0  0
  2 16  1  0  0  0  0
  2 17  1  0  0  0  0
  3 10  2  0  0  0  0
  4 13  2  0  0  0  0
  5 10  1  0  0  0  0
  5 12  1  0  0  0  0
  5 24  1  0  0  0  0
  6 13  1  0  0  0  0
  6 16  1  0  0  0  0
  6 25  1  0  0  0  0
  7 16  2  0  0  0  0
  7 18  1  0  0  0  0
  8  9  1  0  0  0  0
  8 10  1  0  0  0  0
  8 21  1  0  0  0  0
  9 13  1  0  0  0  0
  9 22  1  0  0  0  0
  9 23  1  0  0  0  0
 11 12  1  0  0  0  0
 11 14  2  0  0  0  0
 12 15  2  0  0  0  0
 14 19  1  0  0  0  0
 14 26  1  0  0  0  0
 15 20  1  0  0  0  0
 15 27  1  0  0  0  0
 17 18  1  0  0  0  0
 17 28  1  0  0  0  0
 17 29  1  0  0  0  0
 18 30  1  0  0  0  0
 18 31  1  0  0  0  0
 19 20  2  0  0  0  0
 19 32  1  0  0  0  0
 20 33  1  0  0  0  0
M  END
> <PUBCHEM_COMPOUND_CID>
17395331

> <PUBCHEM_COMPOUND_CANONICALIZED>
1

> <PUBCHEM_CACTVS_COMPLEXITY>
441

> <PUBCHEM_CACTVS_HBOND_ACCEPTOR>
5

> <PUBCHEM_CACTVS_HBOND_DONOR>
2

> <PUBCHEM_CACTVS_ROTATABLE_BOND>
3

> <PUBCHEM_CACTVS_SUBSKEYS>
AAADccBzMABgAAAAAAAAAAAAAAAAAQAAAAA8QAAAAAAAAACxAAAAHgQQAAAACAjF0ASxwYLAAAioACVSdACCEAFhChAJiB0AZIgIIDLgmZGEIAhglADoyAcVAAAAAAAAAAAAAQAAAAAAAAACAAAAAAAAAA==

> <PUBCHEM_IUPAC_OPENEYE_NAME>
N-(4,5-dihydrothiazol-2-yl)-2-(3-oxo-4H-1,4-benzothiazin-2-yl)acetamide

> <PUBCHEM_IUPAC_CAS_NAME>
N-(4,5-dihydrothiazol-2-yl)-2-(3-oxo-4H-1,4-benzothiazin-2-yl)acetamide

> <PUBCHEM_IUPAC_NAME>
N-(4,5-dihydro-1,3-thiazol-2-yl)-2-(3-oxo-4H-1,4-benzothiazin-2-yl)acetamide

> <PUBCHEM_IUPAC_SYSTEMATIC_NAME>
N-(4,5-dihydro-1,3-thiazol-2-yl)-2-(3-oxidanylidene-4H-1,4-benzothiazin-2-yl)ethanamide

> <PUBCHEM_IUPAC_TRADITIONAL_NAME>
2-(3-keto-4H-1,4-benzothiazin-2-yl)-N-(2-thiazolin-2-yl)acetamide

> <PUBCHEM_IUPAC_INCHI>
InChI=1S/C13H13N3O2S2/c17-11(16-13-14-5-6-19-13)7-10-12(18)15-8-3-1-2-4-9(8)20-10/h1-4,10H,5-7H2,(H,15,18)(H,14,16,17)

> <PUBCHEM_IUPAC_INCHIKEY>
AZOSPCKAQKPNIQ-UHFFFAOYSA-N

> <PUBCHEM_XLOGP3_AA>
1.1

> <PUBCHEM_EXACT_MASS>
307.044919

> <PUBCHEM_MOLECULAR_FORMULA>
C13H13N3O2S2

> <PUBCHEM_MOLECULAR_WEIGHT>
307.39122

> <PUBCHEM_OPENEYE_CAN_SMILES>
C1CSC(=N1)NC(=O)CC2C(=O)NC3=CC=CC=C3S2

> <PUBCHEM_OPENEYE_ISO_SMILES>
C1CSC(=N1)NC(=O)CC2C(=O)NC3=CC=CC=C3S2

> <PUBCHEM_CACTVS_TPSA>
121

> <PUBCHEM_MONOISOTOPIC_WEIGHT>
307.044919

> <PUBCHEM_TOTAL_CHARGE>
0

> <PUBCHEM_HEAVY_ATOM_COUNT>
20

> <PUBCHEM_ATOM_DEF_STEREO_COUNT>
0

> <PUBCHEM_ATOM_UDEF_STEREO_COUNT>
1

> <PUBCHEM_BOND_DEF_STEREO_COUNT>
0

> <PUBCHEM_BOND_UDEF_STEREO_COUNT>
0

> <PUBCHEM_ISOTOPIC_ATOM_COUNT>
0

> <PUBCHEM_COMPONENT_COUNT>
1

> <PUBCHEM_CACTVS_TAUTO_COUNT>
9

> <PUBCHEM_COORDINATE_TYPE>
1
5
255

> <PUBCHEM_BONDANNOTATIONS>
11  12  8
11  14  8
12  15  8
14  19  8
15  20  8
19  20  8
8  9  3

$$$$

