9856
  -OEChem-06261204083D

 27 26  0     0  0  0  0  0  0999 V2000
   -5.5250   -0.2972   -0.0767 F   0  0  0  0  0  0  0  0  0  0  0  0
    5.5706    0.3208   -0.0691 O   0  0  0  0  0  0  0  0  0  0  0  0
    0.6394    0.4061    0.0662 C   0  0  0  0  0  0  0  0  0  0  0  0
   -0.6371   -0.4380    0.0492 C   0  0  0  0  0  0  0  0  0  0  0  0
    1.8896   -0.4747    0.0376 C   0  0  0  0  0  0  0  0  0  0  0  0
   -1.8857    0.4468    0.0389 C   0  0  0  0  0  0  0  0  0  0  0  0
    3.1628    0.3684    0.0210 C   0  0  0  0  0  0  0  0  0  0  0  0
   -3.1907   -0.3486    0.0357 C   0  0  0  0  0  0  0  0  0  0  0  0
    4.4111   -0.5010   -0.0515 C   0  0  0  0  0  0  0  0  0  0  0  0
   -4.4350    0.5175   -0.0514 C   0  0  0  0  0  0  0  0  0  0  0  0
    0.6452    1.0781   -0.8007 H   0  0  0  0  0  0  0  0  0  0  0  0
    0.6531    1.0362    0.9639 H   0  0  0  0  0  0  0  0  0  0  0  0
   -0.6581   -1.0926    0.9287 H   0  0  0  0  0  0  0  0  0  0  0  0
   -0.6414   -1.0848   -0.8364 H   0  0  0  0  0  0  0  0  0  0  0  0
    1.8959   -1.1348    0.9135 H   0  0  0  0  0  0  0  0  0  0  0  0
    1.8644   -1.1170   -0.8512 H   0  0  0  0  0  0  0  0  0  0  0  0
   -1.8592    1.0946   -0.8461 H   0  0  0  0  0  0  0  0  0  0  0  0
   -1.8721    1.1073    0.9149 H   0  0  0  0  0  0  0  0  0  0  0  0
    3.2117    1.0022    0.9150 H   0  0  0  0  0  0  0  0  0  0  0  0
    3.1498    1.0561   -0.8339 H   0  0  0  0  0  0  0  0  0  0  0  0
   -3.2511   -0.9680    0.9388 H   0  0  0  0  0  0  0  0  0  0  0  0
   -3.1943   -1.0499   -0.8077 H   0  0  0  0  0  0  0  0  0  0  0  0
    4.4777   -1.1604    0.8194 H   0  0  0  0  0  0  0  0  0  0  0  0
    4.4133   -1.1220   -0.9532 H   0  0  0  0  0  0  0  0  0  0  0  0
   -4.4430    1.1195   -0.9644 H   0  0  0  0  0  0  0  0  0  0  0  0
   -4.5257    1.1788    0.8149 H   0  0  0  0  0  0  0  0  0  0  0  0
    5.5137    0.8909   -0.8548 H   0  0  0  0  0  0  0  0  0  0  0  0
  1 10  1  0  0  0  0
  2  9  1  0  0  0  0
  2 27  1  0  0  0  0
  3  4  1  0  0  0  0
  3  5  1  0  0  0  0
  3 11  1  0  0  0  0
  3 12  1  0  0  0  0
  4  6  1  0  0  0  0
  4 13  1  0  0  0  0
  4 14  1  0  0  0  0
  5  7  1  0  0  0  0
  5 15  1  0  0  0  0
  5 16  1  0  0  0  0
  6  8  1  0  0  0  0
  6 17  1  0  0  0  0
  6 18  1  0  0  0  0
  7  9  1  0  0  0  0
  7 19  1  0  0  0  0
  7 20  1  0  0  0  0
  8 10  1  0  0  0  0
  8 21  1  0  0  0  0
  8 22  1  0  0  0  0
  9 23  1  0  0  0  0
  9 24  1  0  0  0  0
 10 25  1  0  0  0  0
 10 26  1  0  0  0  0
M  END
> <PUBCHEM_COMPOUND_CID>
9856

> <PUBCHEM_CONFORMER_RMSD>
0.6

> <PUBCHEM_CONFORMER_DIVERSEORDER>
1
173
224
344
127
324
5
308
4
351
151
203
339
130
259
7
273
9
216
326
176
197
85
317
320
6
58
69
243
84
145
209
331
3
312
313
10
250
154
72
285
332
286
346
79
30
170
33
34
290
92
2
353
315
20
199
271
345
48
109
117
11
329
347
73
234
352
343
56
139
120
291
21
106
41
321
131
157
24
99
314
262
280
303
22
192
18
171
248
295
149
46
272
49
268
38
305
150
91
96
83
246
336
31
337
17
229
104
302
100
75
323
307
164
143
281
184
51
300
128
238
340
236
207
102
8
333
146
65
190
172
316
15
231
255
319
45
178
141
88
206
298
247
256
289
61
240
270
13
52
62
277
40
132
283
349
29
187
254
194
98
311
342
267
36
16
306
230
158
260
57
341
12
211
274
222
23
304
276
26
156
309
115
208
112
188
235
328
107
116
155
64
278
299
237
350
144
126
77
161
296
50
95
113
334
118
242
327
258
287
218
244
123
186
165
252
292
335
153
63
228
53
245
301
177
19
232
214
196
205
129
60
266
297
76
167
162
87
215
28
14
225
257
121
210
310
32
288
263
275
239
110
94
97
253
338
325
135
108
37
264
265
119
330
269
147
163
181
105
114
74
93
59
179
221
82
47
294
183
348
44
200
140
251
193
138
27
90
318
134
111
219
86
174
217
137
322
136
195
166
66
227
42
122
142
160
279
233
168
54
55
152
220
284
133
182
25
148
103
80
78
223
43
35
201
180
124
202
191
70
204
125
39
175
81
169
212
226
89
241
101
213
185
198
293
71
159
68
282
67
189
249
261

> <PUBCHEM_MMFF94_PARTIAL_CHARGES>
5
1 -0.34
10 0.34
2 -0.68
27 0.4
9 0.28

> <PUBCHEM_EFFECTIVE_ROTOR_COUNT>
7

> <PUBCHEM_PHARMACOPHORE_FEATURES>
4
1 2 acceptor
1 2 donor
3 3 5 7 hydrophobe
3 4 6 8 hydrophobe

> <PUBCHEM_HEAVY_ATOM_COUNT>
10

> <PUBCHEM_ATOM_DEF_STEREO_COUNT>
0

> <PUBCHEM_ATOM_UDEF_STEREO_COUNT>
0

> <PUBCHEM_BOND_DEF_STEREO_COUNT>
0

> <PUBCHEM_BOND_UDEF_STEREO_COUNT>
0

> <PUBCHEM_ISOTOPIC_ATOM_COUNT>
0

> <PUBCHEM_COMPONENT_COUNT>
1

> <PUBCHEM_CACTVS_TAUTO_COUNT>
1

> <PUBCHEM_CONFORMER_ID>
0000268000000001

> <PUBCHEM_MMFF94_ENERGY>
-0.1953

> <PUBCHEM_FEATURE_SELFOVERLAP>
20.297

> <PUBCHEM_SHAPE_FINGERPRINT>
11062470 55 18410855468718102890
114248 4 18410573989446418456
14123238 8 18410575093258288276
15501527 16 18270680986979550389
17834072 33 18187366489051877932
17834076 25 18411419513893465922
187816 3 16515401867642447803
20645477 70 18261953072083647958
20719005 15 18410293618286858856
20767249 213 17275383188127503996
22485316 2 18412265038530690362
23402539 116 18260554428646509141
366044 4 18343864415755915707
42788 4 18411136943911143340

> <PUBCHEM_SHAPE_MULTIPOLES>
192.65
12.26
0.78
0.6
0.03
0
0
-0.17
-0.5
-0.01
0
-0.01
0
0.01

> <PUBCHEM_SHAPE_SELFOVERLAP>
339.976

> <PUBCHEM_SHAPE_VOLUME>
126.2

> <PUBCHEM_COORDINATE_TYPE>
2
5
10

$$$$

