14270
  -OEChem-06241222423D

 18 18  0     0  0  0  0  0  0999 V2000
    2.3073   -0.3133    0.0001 O   0  0  0  0  0  0  0  0  0  0  0  0
   -0.6933    1.5845    0.0001 C   0  0  0  0  0  0  0  0  0  0  0  0
    0.8282    1.5912   -0.0005 C   0  0  0  0  0  0  0  0  0  0  0  0
   -1.0762    0.1326    0.0000 C   0  0  0  0  0  0  0  0  0  0  0  0
   -0.0404   -0.7168    0.0003 C   0  0  0  0  0  0  0  0  0  0  0  0
    1.1684    0.1311    0.0003 C   0  0  0  0  0  0  0  0  0  0  0  0
   -2.5277   -0.2130    0.0001 C   0  0  0  0  0  0  0  0  0  0  0  0
    0.0339   -2.1962   -0.0004 C   0  0  0  0  0  0  0  0  0  0  0  0
   -1.0841    2.0948   -0.8869 H   0  0  0  0  0  0  0  0  0  0  0  0
   -1.0835    2.0944    0.8875 H   0  0  0  0  0  0  0  0  0  0  0  0
    1.2284    2.0711    0.8969 H   0  0  0  0  0  0  0  0  0  0  0  0
    1.2277    2.0700   -0.8988 H   0  0  0  0  0  0  0  0  0  0  0  0
   -3.0148    0.2025   -0.8879 H   0  0  0  0  0  0  0  0  0  0  0  0
   -3.0149    0.2035    0.8875 H   0  0  0  0  0  0  0  0  0  0  0  0
   -2.7047   -1.2916    0.0006 H   0  0  0  0  0  0  0  0  0  0  0  0
    0.5699   -2.5498   -0.8870 H   0  0  0  0  0  0  0  0  0  0  0  0
   -0.9540   -2.6640   -0.0019 H   0  0  0  0  0  0  0  0  0  0  0  0
    0.5677   -2.5507    0.8872 H   0  0  0  0  0  0  0  0  0  0  0  0
  1  6  2  0  0  0  0
  2  3  1  0  0  0  0
  2  4  1  0  0  0  0
  2  9  1  0  0  0  0
  2 10  1  0  0  0  0
  3  6  1  0  0  0  0
  3 11  1  0  0  0  0
  3 12  1  0  0  0  0
  4  5  2  0  0  0  0
  4  7  1  0  0  0  0
  5  6  1  0  0  0  0
  5  8  1  0  0  0  0
  7 13  1  0  0  0  0
  7 14  1  0  0  0  0
  7 15  1  0  0  0  0
  8 16  1  0  0  0  0
  8 17  1  0  0  0  0
  8 18  1  0  0  0  0
M  END
> <PUBCHEM_COMPOUND_CID>
14270

> <PUBCHEM_CONFORMER_RMSD>
0.4

> <PUBCHEM_CONFORMER_DIVERSEORDER>
1

> <PUBCHEM_MMFF94_PARTIAL_CHARGES>
8
1 -0.57
2 0.14
3 0.06
4 -0.28
5 -0.12
6 0.49
7 0.14
8 0.14

> <PUBCHEM_EFFECTIVE_ROTOR_COUNT>
0.4

> <PUBCHEM_PHARMACOPHORE_FEATURES>
2
1 1 acceptor
5 2 3 4 5 6 rings

> <PUBCHEM_HEAVY_ATOM_COUNT>
8

> <PUBCHEM_ATOM_DEF_STEREO_COUNT>
0

> <PUBCHEM_ATOM_UDEF_STEREO_COUNT>
0

> <PUBCHEM_BOND_DEF_STEREO_COUNT>
0

> <PUBCHEM_BOND_UDEF_STEREO_COUNT>
0

> <PUBCHEM_ISOTOPIC_ATOM_COUNT>
0

> <PUBCHEM_COMPONENT_COUNT>
1

> <PUBCHEM_CACTVS_TAUTO_COUNT>
10

> <PUBCHEM_CONFORMER_ID>
000037BE00000001

> <PUBCHEM_MMFF94_ENERGY>
2.6374

> <PUBCHEM_FEATURE_SELFOVERLAP>
10.148

> <PUBCHEM_SHAPE_FINGERPRINT>
16714656 1 18411133641091770828
18185500 45 18336550533285259535
21040471 1 18122344575520602149
23552423 10 17910945061203922646
2748010 2 18194962941968638303
29004967 10 18340762723692329697
5084963 1 18186238428765870945

> <PUBCHEM_SHAPE_MULTIPOLES>
158.77
2.4
1.97
0.6
0.51
0.45
0
0.01
0
-0.14
0
0.03
-0.01
0

> <PUBCHEM_SHAPE_SELFOVERLAP>
320.406

> <PUBCHEM_SHAPE_VOLUME>
96.3

> <PUBCHEM_COORDINATE_TYPE>
2
5
10

$$$$

