13207
  -OEChem-06261207533D

 23 23  0     0  0  0  0  0  0999 V2000
   -2.1275    0.8443   -0.9400 O   0  0  0  0  0  0  0  0  0  0  0  0
   -0.3385   -0.0552    0.3586 C   0  0  0  0  0  0  0  0  0  0  0  0
    0.4165    1.2657    0.1516 C   0  0  0  0  0  0  0  0  0  0  0  0
    0.3332   -1.1944   -0.4214 C   0  0  0  0  0  0  0  0  0  0  0  0
    1.8968    1.1312    0.5028 C   0  0  0  0  0  0  0  0  0  0  0  0
    1.8139   -1.3235   -0.0694 C   0  0  0  0  0  0  0  0  0  0  0  0
    2.5570   -0.0066   -0.2690 C   0  0  0  0  0  0  0  0  0  0  0  0
   -1.7778    0.0860   -0.0368 C   0  0  0  0  0  0  0  0  0  0  0  0
   -2.7735   -0.7475    0.7236 C   0  0  0  0  0  0  0  0  0  0  0  0
   -0.3087   -0.2892    1.4312 H   0  0  0  0  0  0  0  0  0  0  0  0
   -0.0354    2.0551    0.7647 H   0  0  0  0  0  0  0  0  0  0  0  0
    0.3291    1.5952   -0.8921 H   0  0  0  0  0  0  0  0  0  0  0  0
    0.2273   -1.0203   -1.5002 H   0  0  0  0  0  0  0  0  0  0  0  0
   -0.1733   -2.1442   -0.2120 H   0  0  0  0  0  0  0  0  0  0  0  0
    2.0009    0.9511    1.5799 H   0  0  0  0  0  0  0  0  0  0  0  0
    2.4138    2.0726    0.2853 H   0  0  0  0  0  0  0  0  0  0  0  0
    2.2726   -2.1029   -0.6884 H   0  0  0  0  0  0  0  0  0  0  0  0
    1.9134   -1.6448    0.9747 H   0  0  0  0  0  0  0  0  0  0  0  0
    2.5794    0.2416   -1.3373 H   0  0  0  0  0  0  0  0  0  0  0  0
    3.5978   -0.1174    0.0552 H   0  0  0  0  0  0  0  0  0  0  0  0
   -2.5349   -1.8076    0.6099 H   0  0  0  0  0  0  0  0  0  0  0  0
   -2.7571   -0.4675    1.7797 H   0  0  0  0  0  0  0  0  0  0  0  0
   -3.7778   -0.5701    0.3286 H   0  0  0  0  0  0  0  0  0  0  0  0
  1  8  2  0  0  0  0
  2  3  1  0  0  0  0
  2  4  1  0  0  0  0
  2  8  1  0  0  0  0
  2 10  1  0  0  0  0
  3  5  1  0  0  0  0
  3 11  1  0  0  0  0
  3 12  1  0  0  0  0
  4  6  1  0  0  0  0
  4 13  1  0  0  0  0
  4 14  1  0  0  0  0
  5  7  1  0  0  0  0
  5 15  1  0  0  0  0
  5 16  1  0  0  0  0
  6  7  1  0  0  0  0
  6 17  1  0  0  0  0
  6 18  1  0  0  0  0
  7 19  1  0  0  0  0
  7 20  1  0  0  0  0
  8  9  1  0  0  0  0
  9 21  1  0  0  0  0
  9 22  1  0  0  0  0
  9 23  1  0  0  0  0
M  END
> <PUBCHEM_COMPOUND_CID>
13207

> <PUBCHEM_CONFORMER_RMSD>
0.4

> <PUBCHEM_CONFORMER_DIVERSEORDER>
1
9
17
16
6
14
15
5
7
2
8
3
18
4
20
22
11
25
10
28
13
23
24
12
27
26
19
21

> <PUBCHEM_MMFF94_PARTIAL_CHARGES>
4
1 -0.57
2 0.06
8 0.45
9 0.06

> <PUBCHEM_EFFECTIVE_ROTOR_COUNT>
2.2

> <PUBCHEM_PHARMACOPHORE_FEATURES>
2
1 1 acceptor
6 2 3 4 5 6 7 rings

> <PUBCHEM_HEAVY_ATOM_COUNT>
9

> <PUBCHEM_ATOM_DEF_STEREO_COUNT>
0

> <PUBCHEM_ATOM_UDEF_STEREO_COUNT>
0

> <PUBCHEM_BOND_DEF_STEREO_COUNT>
0

> <PUBCHEM_BOND_UDEF_STEREO_COUNT>
0

> <PUBCHEM_ISOTOPIC_ATOM_COUNT>
0

> <PUBCHEM_COMPONENT_COUNT>
1

> <PUBCHEM_CACTVS_TAUTO_COUNT>
3

> <PUBCHEM_CONFORMER_ID>
0000339700000001

> <PUBCHEM_MMFF94_ENERGY>
6.2677

> <PUBCHEM_FEATURE_SELFOVERLAP>
10.148

> <PUBCHEM_SHAPE_FINGERPRINT>
10857977 72 18059573534137224019
12716758 59 17774446121496119595
12897270 3 18410856589757366796
12932741 1 18272656770160269319
12932764 1 18413106160541248899
14325111 11 18336544928178916969
15310529 11 17917710193035329942
16945 1 18259706700701767002
19973954 147 18342457066647323861
20201158 50 18412544331621803707
21040471 1 18263649450778312720
21293036 1 18337093593587992284
23235685 24 18261109613156679808
23552423 10 18201714115167233906
2748010 2 18410014376777596812
29004967 10 18409164432803913978
5084963 1 18272926098700428464

> <PUBCHEM_SHAPE_MULTIPOLES>
179.35
3.81
1.42
0.81
1.12
0.06
-0.03
0.23
0.2
-0.49
-0.01
0.26
-0.05
0.43

> <PUBCHEM_SHAPE_SELFOVERLAP>
347.696

> <PUBCHEM_SHAPE_VOLUME>
108

> <PUBCHEM_COORDINATE_TYPE>
2
5
10

$$$$

