9327
  -OEChem-06261203372D

 92102  0     1  0  0  0  0  0999 V2000
    4.9890   -4.2381    0.0000 O   0  0  0  0  0  0  0  0  0  0  0  0
   15.1728    0.4021    0.0000 O   0  0  0  0  0  0  0  0  0  0  0  0
    2.9478   -0.6639    0.0000 N   0  3  1  0  0  0  0  0  0  0  0  0
   12.6661   -2.7858    0.0000 N   0  3  1  0  0  0  0  0  0  0  0  0
    6.8573   -0.5726    0.0000 N   0  0  0  0  0  0  0  0  0  0  0  0
    7.6775   -3.2943    0.0000 N   0  0  0  0  0  0  0  0  0  0  0  0
    5.0786   -0.5690    0.0000 C   0  0  1  0  0  0  0  0  0  0  0  0
    9.4262   -2.9843    0.0000 C   0  0  1  0  0  0  0  0  0  0  0  0
    4.0279   -1.0272    0.0000 C   0  0  2  0  0  0  0  0  0  0  0  0
   10.9614   -1.7412    0.0000 C   0  0  2  0  0  0  0  0  0  0  0  0
    5.9955   -1.2570    0.0000 C   0  0  2  0  0  0  0  0  0  0  0  0
    8.5127   -2.5776    0.0000 C   0  0  2  0  0  0  0  0  0  0  0  0
    4.4136    0.3563    0.0000 C   0  0  0  0  0  0  0  0  0  0  0  0
    5.6225    4.3508    0.0000 C   0  0  0  0  0  0  0  0  0  0  0  0
    3.9080   -2.1672    0.0000 C   0  0  0  0  0  0  0  0  0  0  0  0
   10.4836    0.2073    0.0000 C   0  0  0  0  0  0  0  0  0  0  0  0
    4.8406   -2.8338    0.0000 C   0  0  2  0  0  0  0  0  0  0  0  0
   11.2202   -0.7753    0.0000 C   0  0  2  0  0  0  0  0  0  0  0  0
    3.1425    0.2436    0.0000 C   0  0  0  0  0  0  0  0  0  0  0  0
    7.7114    5.9334    0.0000 C   0  0  0  0  0  0  0  0  0  0  0  0
    5.8805   -2.3515    0.0000 C   0  0  0  0  0  0  0  0  0  0  0  0
    8.6172   -1.5831    0.0000 C   0  0  0  0  0  0  0  0  0  0  0  0
    5.3794    0.4036    0.0000 C   0  0  0  0  0  0  0  0  0  0  0  0
    9.3197   -3.9727    0.0000 C   0  0  0  0  0  0  0  0  0  0  0  0
    3.8273   -1.1428    0.0000 C   0  0  0  0  0  0  0  0  0  0  0  0
   13.4432   -2.1565    0.0000 C   0  0  0  0  0  0  0  0  0  0  0  0
    4.4856   -1.8974    0.0000 C   0  0  0  0  0  0  0  0  0  0  0  0
   13.0849   -1.2229    0.0000 C   0  0  0  0  0  0  0  0  0  0  0  0
    6.5811   -3.2001    0.0000 C   0  0  0  0  0  0  0  0  0  0  0  0
    7.9493   -0.7084    0.0000 C   0  0  0  0  0  0  0  0  0  0  0  0
    6.4723    0.4514    0.0000 C   0  0  0  0  0  0  0  0  0  0  0  0
    8.3472   -4.1785    0.0000 C   0  0  0  0  0  0  0  0  0  0  0  0
    2.0000   -0.3451    0.0000 C   0  0  0  0  0  0  0  0  0  0  0  0
   12.7184   -3.7845    0.0000 C   0  0  0  0  0  0  0  0  0  0  0  0
    4.7523    1.3550    0.0000 C   0  0  0  0  0  0  0  0  0  0  0  0
   10.0237   -4.7320    0.0000 C   0  0  0  0  0  0  0  0  0  0  0  0
    5.2620   -2.5277    0.0000 C   0  0  0  0  0  0  0  0  0  0  0  0
   13.6295   -0.3843    0.0000 C   0  0  0  0  0  0  0  0  0  0  0  0
    7.0139    1.4539    0.0000 C   0  0  0  0  0  0  0  0  0  0  0  0
    8.0112   -5.1580    0.0000 C   0  0  0  0  0  0  0  0  0  0  0  0
    5.2706    2.3698    0.0000 C   0  0  0  0  0  0  0  0  0  0  0  0
    9.7105   -5.7190    0.0000 C   0  0  0  0  0  0  0  0  0  0  0  0
    6.4090    2.4196    0.0000 C   0  0  0  0  0  0  0  0  0  0  0  0
    8.6975   -5.9334    0.0000 C   0  0  0  0  0  0  0  0  0  0  0  0
    5.6192   -3.4617    0.0000 C   0  0  0  0  0  0  0  0  0  0  0  0
   14.6281   -0.4366    0.0000 C   0  0  0  0  0  0  0  0  0  0  0  0
    3.7082   -0.2938    0.0000 H   0  0  0  0  0  0  0  0  0  0  0  0
   11.5831   -1.2377    0.0000 H   0  0  0  0  0  0  0  0  0  0  0  0
    6.4930   -1.8835    0.0000 H   0  0  0  0  0  0  0  0  0  0  0  0
    7.7818   -2.2522    0.0000 H   0  0  0  0  0  0  0  0  0  0  0  0
    4.9732    0.6231    0.0000 H   0  0  0  0  0  0  0  0  0  0  0  0
    4.2502    0.9543    0.0000 H   0  0  0  0  0  0  0  0  0  0  0  0
    5.2767    4.8654    0.0000 H   0  0  0  0  0  0  0  0  0  0  0  0
    5.0891    4.0347    0.0000 H   0  0  0  0  0  0  0  0  0  0  0  0
    3.3116   -1.9978    0.0000 H   0  0  0  0  0  0  0  0  0  0  0  0
    3.6391   -2.7258    0.0000 H   0  0  0  0  0  0  0  0  0  0  0  0
    9.8704    0.2993    0.0000 H   0  0  0  0  0  0  0  0  0  0  0  0
   10.8014    0.7397    0.0000 H   0  0  0  0  0  0  0  0  0  0  0  0
    4.7122   -3.6234    0.0000 H   0  0  0  0  0  0  0  0  0  0  0  0
   11.9842   -0.5382    0.0000 H   0  0  0  0  0  0  0  0  0  0  0  0
    3.1496    0.8635    0.0000 H   0  0  0  0  0  0  0  0  0  0  0  0
    2.5264    0.3125    0.0000 H   0  0  0  0  0  0  0  0  0  0  0  0
    8.2365    6.2631    0.0000 H   0  0  0  0  0  0  0  0  0  0  0  0
    7.3590    6.4435    0.0000 H   0  0  0  0  0  0  0  0  0  0  0  0
    4.4174   -0.9525    0.0000 H   0  0  0  0  0  0  0  0  0  0  0  0
    3.4394   -1.6264    0.0000 H   0  0  0  0  0  0  0  0  0  0  0  0
   13.7809   -2.6765    0.0000 H   0  0  0  0  0  0  0  0  0  0  0  0
   13.9956   -1.8750    0.0000 H   0  0  0  0  0  0  0  0  0  0  0  0
    6.2931   -3.7491    0.0000 H   0  0  0  0  0  0  0  0  0  0  0  0
    8.2580   -0.1708    0.0000 H   0  0  0  0  0  0  0  0  0  0  0  0
    2.1977    0.2426    0.0000 H   0  0  0  0  0  0  0  0  0  0  0  0
    1.4124   -0.1474    0.0000 H   0  0  0  0  0  0  0  0  0  0  0  0
    1.8023   -0.9327    0.0000 H   0  0  0  0  0  0  0  0  0  0  0  0
   12.0993   -3.8169    0.0000 H   0  0  0  0  0  0  0  0  0  0  0  0
   12.7509   -4.4036    0.0000 H   0  0  0  0  0  0  0  0  0  0  0  0
   13.3376   -3.7520    0.0000 H   0  0  0  0  0  0  0  0  0  0  0  0
    4.1332    1.3207    0.0000 H   0  0  0  0  0  0  0  0  0  0  0  0
   10.6288   -4.5966    0.0000 H   0  0  0  0  0  0  0  0  0  0  0  0
    5.7640   -2.1639    0.0000 H   0  0  0  0  0  0  0  0  0  0  0  0
   13.3480    0.1682    0.0000 H   0  0  0  0  0  0  0  0  0  0  0  0
    7.6336    1.4739    0.0000 H   0  0  0  0  0  0  0  0  0  0  0  0
    7.4032   -5.2793    0.0000 H   0  0  0  0  0  0  0  0  0  0  0  0
    4.9354    2.8914    0.0000 H   0  0  0  0  0  0  0  0  0  0  0  0
   10.1267   -6.1785    0.0000 H   0  0  0  0  0  0  0  0  0  0  0  0
    6.6973    2.9685    0.0000 H   0  0  0  0  0  0  0  0  0  0  0  0
    8.5031   -6.5221    0.0000 H   0  0  0  0  0  0  0  0  0  0  0  0
    6.1510   -3.1430    0.0000 H   0  0  0  0  0  0  0  0  0  0  0  0
    6.0254   -3.9301    0.0000 H   0  0  0  0  0  0  0  0  0  0  0  0
   15.1988   -0.6788    0.0000 H   0  0  0  0  0  0  0  0  0  0  0  0
   14.4887   -1.0407    0.0000 H   0  0  0  0  0  0  0  0  0  0  0  0
    5.2105   -4.8172    0.0000 H   0  0  0  0  0  0  0  0  0  0  0  0
   15.7919    0.3696    0.0000 H   0  0  0  0  0  0  0  0  0  0  0  0
  1 45  1  0  0  0  0
  1 91  1  0  0  0  0
  2 46  1  0  0  0  0
  2 92  1  0  0  0  0
  3  9  1  0  0  0  0
  3 19  1  0  0  0  0
  3 25  1  0  0  0  0
  3 33  1  1  0  0  0
  4 10  1  0  0  0  0
  4 20  1  0  0  0  0
  4 26  1  0  0  0  0
  4 34  1  6  0  0  0
  5 11  1  0  0  0  0
  5 30  1  0  0  0  0
  5 31  1  0  0  0  0
  6 12  1  0  0  0  0
  6 29  1  0  0  0  0
  6 32  1  0  0  0  0
  7  9  1  0  0  0  0
  7 11  1  0  0  0  0
  7 13  1  0  0  0  0
  7 23  1  1  0  0  0
  8 10  1  0  0  0  0
  8 12  1  0  0  0  0
  8 14  1  0  0  0  0
  8 24  1  6  0  0  0
  9 15  1  0  0  0  0
  9 47  1  1  0  0  0
 10 16  1  0  0  0  0
 10 48  1  1  0  0  0
 11 21  1  0  0  0  0
 11 49  1  6  0  0  0
 12 22  1  0  0  0  0
 12 50  1  6  0  0  0
 13 19  1  0  0  0  0
 13 51  1  0  0  0  0
 13 52  1  0  0  0  0
 14 20  1  0  0  0  0
 14 53  1  0  0  0  0
 14 54  1  0  0  0  0
 15 17  1  0  0  0  0
 15 55  1  0  0  0  0
 15 56  1  0  0  0  0
 16 18  1  0  0  0  0
 16 57  1  0  0  0  0
 16 58  1  0  0  0  0
 17 21  1  0  0  0  0
 17 27  1  0  0  0  0
 17 59  1  6  0  0  0
 18 22  1  0  0  0  0
 18 28  1  0  0  0  0
 18 60  1  6  0  0  0
 19 61  1  0  0  0  0
 19 62  1  0  0  0  0
 20 63  1  0  0  0  0
 20 64  1  0  0  0  0
 21 29  2  3  0  0  0
 22 30  2  3  0  0  0
 23 31  1  0  0  0  0
 23 35  2  0  0  0  0
 24 32  1  0  0  0  0
 24 36  2  0  0  0  0
 25 27  1  0  0  0  0
 25 65  1  0  0  0  0
 25 66  1  0  0  0  0
 26 28  1  0  0  0  0
 26 67  1  0  0  0  0
 26 68  1  0  0  0  0
 27 37  2  3  0  0  0
 28 38  2  3  0  0  0
 29 69  1  0  0  0  0
 30 70  1  0  0  0  0
 31 39  2  0  0  0  0
 32 40  2  0  0  0  0
 33 71  1  0  0  0  0
 33 72  1  0  0  0  0
 33 73  1  0  0  0  0
 34 74  1  0  0  0  0
 34 75  1  0  0  0  0
 34 76  1  0  0  0  0
 35 41  1  0  0  0  0
 35 77  1  0  0  0  0
 36 42  1  0  0  0  0
 36 78  1  0  0  0  0
 37 45  1  0  0  0  0
 37 79  1  0  0  0  0
 38 46  1  0  0  0  0
 38 80  1  0  0  0  0
 39 43  1  0  0  0  0
 39 81  1  0  0  0  0
 40 44  1  0  0  0  0
 40 82  1  0  0  0  0
 41 43  2  0  0  0  0
 41 83  1  0  0  0  0
 42 44  2  0  0  0  0
 42 84  1  0  0  0  0
 43 85  1  0  0  0  0
 44 86  1  0  0  0  0
 45 87  1  0  0  0  0
 45 88  1  0  0  0  0
 46 89  1  0  0  0  0
 46 90  1  0  0  0  0
M  CHG  2   3   1   4   1
M  END
> <PUBCHEM_COMPOUND_CID>
9327

> <PUBCHEM_COMPOUND_CANONICALIZED>
1

> <PUBCHEM_CACTVS_COMPLEXITY>
1390

> <PUBCHEM_CACTVS_HBOND_ACCEPTOR>
4

> <PUBCHEM_CACTVS_HBOND_DONOR>
2

> <PUBCHEM_CACTVS_ROTATABLE_BOND>
2

> <PUBCHEM_CACTVS_SUBSKEYS>
AAADcfB/sAAAAAAAAAAAAAAAAAAAAWLFiwA8eMGCAAAWLFgBQAAAHgAACAAADyjhmAYywIMAAgCAAiRGQACCAAAhAgAIiAAIZIgINCLA0ZGEMAhggADI2AcQgMAPgAAAAAACAACAAACACAQAAAAAAAAAAA==

> <PUBCHEM_IUPAC_INCHI>
InChI=1S/C40H46N4O2/c1-43-15-13-39-31-7-3-5-9-33(31)41-22-30-28-20-36-40(14-16-44(36,2)24-26(28)12-18-46)32-8-4-6-10-34(32)42(38(30)40)21-29(37(39)41)27(19-35(39)43)25(23-43)11-17-45/h3-12,21-22,27-28,35-38,45-46H,13-20,23-24H2,1-2H3/q+2/t27-,28-,35-,36-,37-,38-,39+,40+,43-,44-/m0/s1

> <PUBCHEM_IUPAC_INCHIKEY>
IIYHWTVUYIYKKG-XNQCAQMJSA-N

> <PUBCHEM_XLOGP3_AA>
1.8

> <PUBCHEM_EXACT_MASS>
614.362077

> <PUBCHEM_MOLECULAR_FORMULA>
C40H46N4O2+2

> <PUBCHEM_MOLECULAR_WEIGHT>
614.81884

> <PUBCHEM_OPENEYE_CAN_SMILES>
C[N+]12CCC34C1CC(C(=CCO)C2)C5=CN6C7C(=CN(C53)C8=CC=CC=C48)C9CC1C7(CC[N+]1(CC9=CCO)C)C1=CC=CC=C16

> <PUBCHEM_OPENEYE_ISO_SMILES>
C[N@@+]12CC[C@@]34[C@@H]1C[C@@H](C(=CCO)C2)C5=CN6[C@H]7C(=CN([C@@H]53)C8=CC=CC=C48)[C@H]9C[C@H]1[C@@]7(CC[N@+]1(CC9=CCO)C)C1=CC=CC=C16

> <PUBCHEM_CACTVS_TPSA>
46.9

> <PUBCHEM_MONOISOTOPIC_WEIGHT>
614.362077

> <PUBCHEM_TOTAL_CHARGE>
2

> <PUBCHEM_HEAVY_ATOM_COUNT>
46

> <PUBCHEM_ATOM_DEF_STEREO_COUNT>
10

> <PUBCHEM_ATOM_UDEF_STEREO_COUNT>
0

> <PUBCHEM_BOND_DEF_STEREO_COUNT>
0

> <PUBCHEM_BOND_UDEF_STEREO_COUNT>
4

> <PUBCHEM_ISOTOPIC_ATOM_COUNT>
0

> <PUBCHEM_COMPONENT_COUNT>
1

> <PUBCHEM_CACTVS_TAUTO_COUNT>
1

> <PUBCHEM_COORDINATE_TYPE>
1
5
255

> <PUBCHEM_BONDANNOTATIONS>
10  48  5
11  49  6
12  50  6
17  59  6
18  60  6
21  29  1
22  30  1
23  31  8
23  35  8
24  32  8
24  36  8
27  37  1
28  38  1
3  33  5
31  39  8
32  40  8
35  41  8
36  42  8
39  43  8
4  34  6
40  44  8
41  43  8
42  44  8
7  23  5
8  24  6
9  47  5

$$$$

