12820
  -OEChem-06261207243D

 23 23  0     0  0  0  0  0  0999 V2000
   -3.0054   -0.5364    0.3323 O   0  0  0  0  0  0  0  0  0  0  0  0
    0.9690    2.1082    0.0746 O   0  0  0  0  0  0  0  0  0  0  0  0
   -1.7702    1.9414    0.3085 O   0  0  0  0  0  0  0  0  0  0  0  0
    3.1367    0.7484   -0.6956 O   0  0  0  0  0  0  0  0  0  0  0  0
    1.1235   -0.2780   -0.0194 C   0  0  0  0  0  0  0  0  0  0  0  0
    0.3625    0.8862    0.0871 C   0  0  0  0  0  0  0  0  0  0  0  0
   -1.0248    0.8041    0.2063 C   0  0  0  0  0  0  0  0  0  0  0  0
   -1.6512   -0.4421    0.2191 C   0  0  0  0  0  0  0  0  0  0  0  0
    0.4970   -1.5242   -0.0065 C   0  0  0  0  0  0  0  0  0  0  0  0
   -0.8902   -1.6063    0.1128 C   0  0  0  0  0  0  0  0  0  0  0  0
    2.5732   -0.2166   -0.1440 C   0  0  0  0  0  0  0  0  0  0  0  0
    3.4382   -1.3450    0.4039 C   0  0  0  0  0  0  0  0  0  0  0  0
   -3.7583   -0.5398   -0.8790 C   0  0  0  0  0  0  0  0  0  0  0  0
    1.0609   -2.4480   -0.1018 H   0  0  0  0  0  0  0  0  0  0  0  0
   -1.3720   -2.5804    0.1193 H   0  0  0  0  0  0  0  0  0  0  0  0
    3.5743   -2.1094   -0.3650 H   0  0  0  0  0  0  0  0  0  0  0  0
    2.9880   -1.7806    1.3000 H   0  0  0  0  0  0  0  0  0  0  0  0
    4.4130   -0.9393    0.6913 H   0  0  0  0  0  0  0  0  0  0  0  0
    0.2829    2.7930    0.1580 H   0  0  0  0  0  0  0  0  0  0  0  0
   -2.7030    1.6921    0.4258 H   0  0  0  0  0  0  0  0  0  0  0  0
   -3.5121   -1.4220   -1.4784 H   0  0  0  0  0  0  0  0  0  0  0  0
   -3.5702    0.3705   -1.4570 H   0  0  0  0  0  0  0  0  0  0  0  0
   -4.8204   -0.5773   -0.6220 H   0  0  0  0  0  0  0  0  0  0  0  0
  1  8  1  0  0  0  0
  1 13  1  0  0  0  0
  2  6  1  0  0  0  0
  2 19  1  0  0  0  0
  3  7  1  0  0  0  0
  3 20  1  0  0  0  0
  4 11  2  0  0  0  0
  5  6  2  0  0  0  0
  5  9  1  0  0  0  0
  5 11  1  0  0  0  0
  6  7  1  0  0  0  0
  7  8  2  0  0  0  0
  8 10  1  0  0  0  0
  9 10  2  0  0  0  0
  9 14  1  0  0  0  0
 10 15  1  0  0  0  0
 11 12  1  0  0  0  0
 12 16  1  0  0  0  0
 12 17  1  0  0  0  0
 12 18  1  0  0  0  0
 13 21  1  0  0  0  0
 13 22  1  0  0  0  0
 13 23  1  0  0  0  0
M  END
> <PUBCHEM_COMPOUND_CID>
12820

> <PUBCHEM_CONFORMER_RMSD>
0.6

> <PUBCHEM_CONFORMER_DIVERSEORDER>
2
4
5
3
6
1

> <PUBCHEM_MMFF94_PARTIAL_CHARGES>
17
1 -0.36
10 -0.15
11 0.42
12 0.06
13 0.28
14 0.15
15 0.15
19 0.45
2 -0.53
20 0.45
3 -0.53
4 -0.57
5 0.09
6 0.08
7 0.08
8 0.08
9 -0.15

> <PUBCHEM_EFFECTIVE_ROTOR_COUNT>
2

> <PUBCHEM_PHARMACOPHORE_FEATURES>
5
1 1 acceptor
1 2 donor
1 3 donor
1 4 acceptor
6 5 6 7 8 9 10 rings

> <PUBCHEM_HEAVY_ATOM_COUNT>
13

> <PUBCHEM_ATOM_DEF_STEREO_COUNT>
0

> <PUBCHEM_ATOM_UDEF_STEREO_COUNT>
0

> <PUBCHEM_BOND_DEF_STEREO_COUNT>
0

> <PUBCHEM_BOND_UDEF_STEREO_COUNT>
0

> <PUBCHEM_ISOTOPIC_ATOM_COUNT>
0

> <PUBCHEM_COMPONENT_COUNT>
1

> <PUBCHEM_CACTVS_TAUTO_COUNT>
23

> <PUBCHEM_CONFORMER_ID>
0000321400000002

> <PUBCHEM_MMFF94_ENERGY>
45.4523

> <PUBCHEM_FEATURE_SELFOVERLAP>
25.376

> <PUBCHEM_SHAPE_FINGERPRINT>
10130415 120 18343587347642244210
11206711 2 18411135861663976045
11401426 45 18335433369373655935
11471102 20 18411986845193635695
12032990 46 18410568513442737554
14325111 11 18411133684136447744
14911166 2 18410573950939607527
14993402 34 18335981991142143654
16945 1 18409443657138770082
18619055 16 18271807891333298590
19026448 4 16343699919893213435
193761 8 17545038204228122667
20201158 50 18411138030517062575
20645476 183 17773859927269909046
21501502 16 18338795744413358432
21501925 9 18340496642205643954
2334 1 17832987139720690107
23402539 116 18261686951013295958
23402655 69 18265630943211038317
23463225 33 18341330110463298034
23552423 10 17981602671970295612
23559900 14 18337105667184218228
2748010 2 18120365716509790023
5084963 1 18113053831072527683
528886 8 18337674113709471275
53812654 25 18187938256757936582
7364860 26 18335700516967013160

> <PUBCHEM_SHAPE_MULTIPOLES>
244.06
5.24
1.86
0.72
0.25
0.54
0.06
-1.24
0.81
-0.13
-0.14
0.11
-0.03
-0.39

> <PUBCHEM_SHAPE_SELFOVERLAP>
511.852

> <PUBCHEM_SHAPE_VOLUME>
138.8

> <PUBCHEM_COORDINATE_TYPE>
2
5
10

$$$$

