14073
  -OEChem-06241222412D

 11 11  0     0  0  0  0  0  0999 V2000
    2.5000   -0.0670    0.0000 N   0  0  0  0  0  0  0  0  0  0  0  0
    2.0000   -0.9330    0.0000 C   0  0  0  0  0  0  0  0  0  0  0  0
    3.0000   -0.9330    0.0000 C   0  0  0  0  0  0  0  0  0  0  0  0
    2.5000    0.9330    0.0000 C   0  0  0  0  0  0  0  0  0  0  0  0
    1.4174   -0.7210    0.0000 H   0  0  0  0  0  0  0  0  0  0  0  0
    1.8923   -1.5436    0.0000 H   0  0  0  0  0  0  0  0  0  0  0  0
    3.1077   -1.5436    0.0000 H   0  0  0  0  0  0  0  0  0  0  0  0
    3.5826   -0.7210    0.0000 H   0  0  0  0  0  0  0  0  0  0  0  0
    3.1200    0.9330    0.0000 H   0  0  0  0  0  0  0  0  0  0  0  0
    2.5000    1.5530    0.0000 H   0  0  0  0  0  0  0  0  0  0  0  0
    1.8800    0.9330    0.0000 H   0  0  0  0  0  0  0  0  0  0  0  0
  1  2  1  0  0  0  0
  1  3  1  0  0  0  0
  1  4  1  0  0  0  0
  2  3  1  0  0  0  0
  2  5  1  0  0  0  0
  2  6  1  0  0  0  0
  3  7  1  0  0  0  0
  3  8  1  0  0  0  0
  4  9  1  0  0  0  0
  4 10  1  0  0  0  0
  4 11  1  0  0  0  0
M  END
> <PUBCHEM_COMPOUND_CID>
14073

> <PUBCHEM_COMPOUND_CANONICALIZED>
1

> <PUBCHEM_CACTVS_COMPLEXITY>
22.5

> <PUBCHEM_CACTVS_HBOND_ACCEPTOR>
1

> <PUBCHEM_CACTVS_HBOND_DONOR>
0

> <PUBCHEM_CACTVS_ROTATABLE_BOND>
0

> <PUBCHEM_CACTVS_SUBSKEYS>
AAADcYBCAAAAAAAAAAAAAAAAFgAAAAAAAAAAAAAAAAAAAAAAAAAAHAAAAAAAAADBAAQCAAMAAAAAAAAAAAAAAAAAAAAAAAAIAAAAAAAAAAAAAAAAAAAAAAAAAAAAAAAAAAAAAAAAAAAAAAAAAAAAAAAAAA==

> <PUBCHEM_IUPAC_OPENEYE_NAME>
1-methylaziridine

> <PUBCHEM_IUPAC_CAS_NAME>
1-methylaziridine

> <PUBCHEM_IUPAC_NAME>
1-methylaziridine

> <PUBCHEM_IUPAC_SYSTEMATIC_NAME>
1-methylaziridine

> <PUBCHEM_IUPAC_TRADITIONAL_NAME>
1-methylethylenimine

> <PUBCHEM_IUPAC_INCHI>
InChI=1S/C3H7N/c1-4-2-3-4/h2-3H2,1H3

> <PUBCHEM_IUPAC_INCHIKEY>
XLJQPXVBQNJNLW-UHFFFAOYSA-N

> <PUBCHEM_XLOGP3_AA>
0

> <PUBCHEM_EXACT_MASS>
57.057849

> <PUBCHEM_MOLECULAR_FORMULA>
C3H7N

> <PUBCHEM_MOLECULAR_WEIGHT>
57.09438

> <PUBCHEM_OPENEYE_CAN_SMILES>
CN1CC1

> <PUBCHEM_OPENEYE_ISO_SMILES>
CN1CC1

> <PUBCHEM_CACTVS_TPSA>
3

> <PUBCHEM_MONOISOTOPIC_WEIGHT>
57.057849

> <PUBCHEM_TOTAL_CHARGE>
0

> <PUBCHEM_HEAVY_ATOM_COUNT>
4

> <PUBCHEM_ATOM_DEF_STEREO_COUNT>
0

> <PUBCHEM_ATOM_UDEF_STEREO_COUNT>
0

> <PUBCHEM_BOND_DEF_STEREO_COUNT>
0

> <PUBCHEM_BOND_UDEF_STEREO_COUNT>
0

> <PUBCHEM_ISOTOPIC_ATOM_COUNT>
0

> <PUBCHEM_COMPONENT_COUNT>
1

> <PUBCHEM_CACTVS_TAUTO_COUNT>
1

> <PUBCHEM_COORDINATE_TYPE>
1
5
255

$$$$

