17396563
  -OEChem-06241222572D

 36 38  0     1  0  0  0  0  0999 V2000
    4.6783    0.4413    0.0000 S   0  0  0  0  0  0  0  0  0  0  0  0
    6.7619    0.3800    0.0000 O   0  0  0  0  0  0  0  0  0  0  0  0
    7.7619   -1.3520    0.0000 O   0  0  0  0  0  0  0  0  0  0  0  0
    9.5406   -2.2461    0.0000 O   0  0  0  0  0  0  0  0  0  0  0  0
    6.7619    2.1121    0.0000 O   0  0  0  0  0  0  0  0  0  0  0  0
    9.2619   -0.4860    0.0000 N   0  0  0  0  0  0  0  0  0  0  0  0
   10.8007   -0.9860    0.0000 N   0  0  0  0  0  0  0  0  0  0  0  0
    9.8497    0.3230    0.0000 C   0  0  0  0  0  0  0  0  0  0  0  0
   10.8007    0.0140    0.0000 C   0  0  0  0  0  0  0  0  0  0  0  0
    7.7619    0.3800    0.0000 C   0  0  3  0  0  0  0  0  0  0  0  0
    8.2619   -0.4860    0.0000 C   0  0  0  0  0  0  0  0  0  0  0  0
    9.8497   -1.2950    0.0000 C   0  0  0  0  0  0  0  0  0  0  0  0
    8.2619    1.2461    0.0000 C   0  0  0  0  0  0  0  0  0  0  0  0
    3.7320    1.7461    0.0000 C   0  0  0  0  0  0  0  0  0  0  0  0
    5.2619    1.2461    0.0000 C   0  0  0  0  0  0  0  0  0  0  0  0
    3.7320    0.7461    0.0000 C   0  0  0  0  0  0  0  0  0  0  0  0
    6.2619    1.2461    0.0000 C   0  0  0  0  0  0  0  0  0  0  0  0
    4.6783    2.0508    0.0000 C   0  0  0  0  0  0  0  0  0  0  0  0
    2.8660    2.2461    0.0000 C   0  0  0  0  0  0  0  0  0  0  0  0
    2.8660    0.2461    0.0000 C   0  0  0  0  0  0  0  0  0  0  0  0
    2.0000    1.7461    0.0000 C   0  0  0  0  0  0  0  0  0  0  0  0
    2.0000    0.7461    0.0000 C   0  0  0  0  0  0  0  0  0  0  0  0
   10.1018    0.8894    0.0000 H   0  0  0  0  0  0  0  0  0  0  0  0
    9.3127    0.6330    0.0000 H   0  0  0  0  0  0  0  0  0  0  0  0
   11.4173   -0.0508    0.0000 H   0  0  0  0  0  0  0  0  0  0  0  0
   10.9296    0.6205    0.0000 H   0  0  0  0  0  0  0  0  0  0  0  0
    7.4519   -0.1569    0.0000 H   0  0  0  0  0  0  0  0  0  0  0  0
   11.3023   -1.3504    0.0000 H   0  0  0  0  0  0  0  0  0  0  0  0
    8.7988    0.9361    0.0000 H   0  0  0  0  0  0  0  0  0  0  0  0
    8.5719    1.7830    0.0000 H   0  0  0  0  0  0  0  0  0  0  0  0
    7.7249    1.5561    0.0000 H   0  0  0  0  0  0  0  0  0  0  0  0
    4.8709    2.6401    0.0000 H   0  0  0  0  0  0  0  0  0  0  0  0
    2.8660    2.8661    0.0000 H   0  0  0  0  0  0  0  0  0  0  0  0
    2.8660   -0.3739    0.0000 H   0  0  0  0  0  0  0  0  0  0  0  0
    1.4631    2.0561    0.0000 H   0  0  0  0  0  0  0  0  0  0  0  0
    1.4631    0.4361    0.0000 H   0  0  0  0  0  0  0  0  0  0  0  0
  1 15  1  0  0  0  0
  1 16  1  0  0  0  0
  2 10  1  0  0  0  0
  2 17  1  0  0  0  0
  3 11  2  0  0  0  0
  4 12  2  0  0  0  0
  5 17  2  0  0  0  0
  6  8  1  0  0  0  0
  6 11  1  0  0  0  0
  6 12  1  0  0  0  0
  7  9  1  0  0  0  0
  7 12  1  0  0  0  0
  7 28  1  0  0  0  0
  8  9  1  0  0  0  0
  8 23  1  0  0  0  0
  8 24  1  0  0  0  0
  9 25  1  0  0  0  0
  9 26  1  0  0  0  0
 10 11  1  0  0  0  0
 10 13  1  0  0  0  0
 10 27  1  0  0  0  0
 13 29  1  0  0  0  0
 13 30  1  0  0  0  0
 13 31  1  0  0  0  0
 14 16  1  0  0  0  0
 14 18  1  0  0  0  0
 14 19  2  0  0  0  0
 15 17  1  0  0  0  0
 15 18  2  0  0  0  0
 16 20  2  0  0  0  0
 18 32  1  0  0  0  0
 19 21  1  0  0  0  0
 19 33  1  0  0  0  0
 20 22  1  0  0  0  0
 20 34  1  0  0  0  0
 21 22  2  0  0  0  0
 21 35  1  0  0  0  0
 22 36  1  0  0  0  0
M  END
> <PUBCHEM_COMPOUND_CID>
17396563

> <PUBCHEM_COMPOUND_CANONICALIZED>
1

> <PUBCHEM_CACTVS_COMPLEXITY>
484

> <PUBCHEM_CACTVS_HBOND_ACCEPTOR>
5

> <PUBCHEM_CACTVS_HBOND_DONOR>
1

> <PUBCHEM_CACTVS_ROTATABLE_BOND>
4

> <PUBCHEM_CACTVS_SUBSKEYS>
AAADccBzOABAAAAAAAAAAAAAAAAAAWJAAAAwAAAAAAAAAEgB8AAAHgQQAAAADBTh2AYzCcPABAiMAiHSGAIDAIAkCBBIiJlICMiKZjKgNRyXMQAs1yO4qYeIyKCOAAAAAAAEAAAAAAAAAAgAAAAAAAAAAA==

> <PUBCHEM_IUPAC_OPENEYE_NAME>
[1-methyl-2-oxo-2-(2-oxoimidazolidin-1-yl)ethyl] benzothiophene-2-carboxylate

> <PUBCHEM_IUPAC_CAS_NAME>
1-benzothiophene-2-carboxylic acid [1-oxo-1-(2-oxo-1-imidazolidinyl)propan-2-yl] ester

> <PUBCHEM_IUPAC_NAME>
[1-oxo-1-(2-oxoimidazolidin-1-yl)propan-2-yl] 1-benzothiophene-2-carboxylate

> <PUBCHEM_IUPAC_SYSTEMATIC_NAME>
[1-oxidanylidene-1-(2-oxidanylideneimidazolidin-1-yl)propan-2-yl] 1-benzothiophene-2-carboxylate

> <PUBCHEM_IUPAC_TRADITIONAL_NAME>
benzothiophene-2-carboxylic acid [2-keto-2-(2-ketoimidazolidin-1-yl)-1-methyl-ethyl] ester

> <PUBCHEM_IUPAC_INCHI>
InChI=1S/C15H14N2O4S/c1-9(13(18)17-7-6-16-15(17)20)21-14(19)12-8-10-4-2-3-5-11(10)22-12/h2-5,8-9H,6-7H2,1H3,(H,16,20)

> <PUBCHEM_IUPAC_INCHIKEY>
PIRCKHCAYZFKEJ-UHFFFAOYSA-N

> <PUBCHEM_XLOGP3_AA>
2.4

> <PUBCHEM_EXACT_MASS>
318.067428

> <PUBCHEM_MOLECULAR_FORMULA>
C15H14N2O4S

> <PUBCHEM_MOLECULAR_WEIGHT>
318.34766

> <PUBCHEM_OPENEYE_CAN_SMILES>
CC(C(=O)N1CCNC1=O)OC(=O)C2=CC3=CC=CC=C3S2

> <PUBCHEM_OPENEYE_ISO_SMILES>
CC(C(=O)N1CCNC1=O)OC(=O)C2=CC3=CC=CC=C3S2

> <PUBCHEM_CACTVS_TPSA>
104

> <PUBCHEM_MONOISOTOPIC_WEIGHT>
318.067428

> <PUBCHEM_TOTAL_CHARGE>
0

> <PUBCHEM_HEAVY_ATOM_COUNT>
22

> <PUBCHEM_ATOM_DEF_STEREO_COUNT>
0

> <PUBCHEM_ATOM_UDEF_STEREO_COUNT>
1

> <PUBCHEM_BOND_DEF_STEREO_COUNT>
0

> <PUBCHEM_BOND_UDEF_STEREO_COUNT>
0

> <PUBCHEM_ISOTOPIC_ATOM_COUNT>
0

> <PUBCHEM_COMPONENT_COUNT>
1

> <PUBCHEM_CACTVS_TAUTO_COUNT>
2

> <PUBCHEM_COORDINATE_TYPE>
1
5
255

> <PUBCHEM_BONDANNOTATIONS>
1  15  8
1  16  8
10  13  3
14  16  8
14  18  8
14  19  8
15  18  8
16  20  8
19  21  8
20  22  8
21  22  8

$$$$

