854146
  -OEChem-06241222473D

 20 20  0     0  0  0  0  0  0999 V2000
   -0.2869    2.3030   -0.1494 O   0  0  0  0  0  0  0  0  0  0  0  0
    1.6297    1.0108    0.2243 N   0  0  0  0  0  0  0  0  0  0  0  0
   -0.3375   -0.0949   -0.2356 C   0  0  0  0  0  0  0  0  0  0  0  0
    0.6326   -1.0045   -0.0547 C   0  0  0  0  0  0  0  0  0  0  0  0
    1.9572   -0.3832    0.2515 C   0  0  0  0  0  0  0  0  0  0  0  0
   -1.7779   -0.2382   -0.5528 C   0  0  0  0  0  0  0  0  0  0  0  0
    0.2933    1.2344   -0.0571 C   0  0  0  0  0  0  0  0  0  0  0  0
    0.5277   -2.4884   -0.1256 C   0  0  0  0  0  0  0  0  0  0  0  0
   -2.6383   -0.3390    0.6994 C   0  0  0  0  0  0  0  0  0  0  0  0
    2.3283   -0.6460    1.2454 H   0  0  0  0  0  0  0  0  0  0  0  0
    2.7093   -0.5909   -0.5139 H   0  0  0  0  0  0  0  0  0  0  0  0
   -2.1167    0.6077   -1.1624 H   0  0  0  0  0  0  0  0  0  0  0  0
   -1.9390   -1.1314   -1.1678 H   0  0  0  0  0  0  0  0  0  0  0  0
    2.3001    1.7543    0.3924 H   0  0  0  0  0  0  0  0  0  0  0  0
    0.8362   -2.9357    0.8247 H   0  0  0  0  0  0  0  0  0  0  0  0
    1.1749   -2.8773   -0.9179 H   0  0  0  0  0  0  0  0  0  0  0  0
   -0.4936   -2.8208   -0.3328 H   0  0  0  0  0  0  0  0  0  0  0  0
   -3.6928   -0.4457    0.4251 H   0  0  0  0  0  0  0  0  0  0  0  0
   -2.5399    0.5573    1.3210 H   0  0  0  0  0  0  0  0  0  0  0  0
   -2.3575   -1.2073    1.3051 H   0  0  0  0  0  0  0  0  0  0  0  0
  1  7  2  0  0  0  0
  2  5  1  0  0  0  0
  2  7  1  0  0  0  0
  2 14  1  0  0  0  0
  3  4  2  0  0  0  0
  3  6  1  0  0  0  0
  3  7  1  0  0  0  0
  4  5  1  0  0  0  0
  4  8  1  0  0  0  0
  5 10  1  0  0  0  0
  5 11  1  0  0  0  0
  6  9  1  0  0  0  0
  6 12  1  0  0  0  0
  6 13  1  0  0  0  0
  8 15  1  0  0  0  0
  8 16  1  0  0  0  0
  8 17  1  0  0  0  0
  9 18  1  0  0  0  0
  9 19  1  0  0  0  0
  9 20  1  0  0  0  0
M  END
> <PUBCHEM_COMPOUND_CID>
854146

> <PUBCHEM_CONFORMER_RMSD>
0.4

> <PUBCHEM_CONFORMER_DIVERSEORDER>
2
1
3
4

> <PUBCHEM_MMFF94_PARTIAL_CHARGES>
9
1 -0.57
14 0.37
2 -0.73
3 -0.12
4 -0.28
5 0.44
6 0.14
7 0.62
8 0.14

> <PUBCHEM_EFFECTIVE_ROTOR_COUNT>
1.4

> <PUBCHEM_PHARMACOPHORE_FEATURES>
4
1 1 acceptor
1 2 donor
1 9 hydrophobe
5 2 3 4 5 7 rings

> <PUBCHEM_HEAVY_ATOM_COUNT>
9

> <PUBCHEM_ATOM_DEF_STEREO_COUNT>
0

> <PUBCHEM_ATOM_UDEF_STEREO_COUNT>
0

> <PUBCHEM_BOND_DEF_STEREO_COUNT>
0

> <PUBCHEM_BOND_UDEF_STEREO_COUNT>
0

> <PUBCHEM_ISOTOPIC_ATOM_COUNT>
0

> <PUBCHEM_COMPONENT_COUNT>
1

> <PUBCHEM_CACTVS_TAUTO_COUNT>
2

> <PUBCHEM_CONFORMER_ID>
000D088200000002

> <PUBCHEM_MMFF94_ENERGY>
2.6803

> <PUBCHEM_FEATURE_SELFOVERLAP>
20.297

> <PUBCHEM_SHAPE_FINGERPRINT>
12423570 1 7634818025401783263
161256 15 18118111696203235574
16945 1 18337396061816238774
18185500 45 18334021579232073943
193761 8 17977949321280384900
21040471 1 18121782716441232388
23552423 10 17838608217077399382
2748010 2 18339654403034180900
29004967 10 18341893008686986939
5084963 1 17970916557230814279

> <PUBCHEM_SHAPE_MULTIPOLES>
174.37
2.59
2.19
0.71
1.27
0.09
0.02
0.4
0.51
-0.53
-0.12
0.19
0.06
0.13

> <PUBCHEM_SHAPE_SELFOVERLAP>
350.865

> <PUBCHEM_SHAPE_VOLUME>
105.8

> <PUBCHEM_COORDINATE_TYPE>
2
5
10

$$$$

