13286
  -OEChem-06261208313D

 33 33  0     0  0  0  0  0  0999 V2000
   -0.9183   -2.6241    0.3468 O   0  0  0  0  0  0  0  0  0  0  0  0
   -1.7864    1.9328    0.5352 O   0  0  0  0  0  0  0  0  0  0  0  0
    2.2486    0.4088   -1.1811 O   0  0  0  0  0  0  0  0  0  0  0  0
   -3.8487    0.4324   -0.8783 O   0  0  0  0  0  0  0  0  0  0  0  0
    3.2784   -1.4928    0.7424 O   0  0  0  0  0  0  0  0  0  0  0  0
    2.5035    2.4132    0.8272 O   0  0  0  0  0  0  0  0  0  0  0  0
   -1.3962   -0.3497    0.4112 N   0  0  0  0  0  0  0  0  0  0  0  0
    0.6752   -1.1314   -0.4338 N   0  0  0  0  0  0  0  0  0  0  0  0
    0.2229    1.1937   -0.3707 N   0  0  0  0  0  0  0  0  0  0  0  0
   -0.5777   -1.4579    0.1243 C   0  0  0  0  0  0  0  0  0  0  0  0
   -1.0430    1.0006    0.2131 C   0  0  0  0  0  0  0  0  0  0  0  0
    1.1356    0.1712   -0.7017 C   0  0  0  0  0  0  0  0  0  0  0  0
   -2.7221   -0.6212    0.9600 C   0  0  0  0  0  0  0  0  0  0  0  0
    1.5566   -2.2536   -0.7460 C   0  0  0  0  0  0  0  0  0  0  0  0
    0.6248    2.5682   -0.6578 C   0  0  0  0  0  0  0  0  0  0  0  0
   -3.7585   -0.7778   -0.1377 C   0  0  0  0  0  0  0  0  0  0  0  0
    2.4498   -2.6050    0.4297 C   0  0  0  0  0  0  0  0  0  0  0  0
    1.3556    3.1924    0.5170 C   0  0  0  0  0  0  0  0  0  0  0  0
   -3.0114    0.2018    1.6234 H   0  0  0  0  0  0  0  0  0  0  0  0
   -2.6920   -1.5327    1.5668 H   0  0  0  0  0  0  0  0  0  0  0  0
    2.1781   -1.9814   -1.6070 H   0  0  0  0  0  0  0  0  0  0  0  0
    0.9641   -3.1285   -1.0350 H   0  0  0  0  0  0  0  0  0  0  0  0
   -0.2581    3.1694   -0.9015 H   0  0  0  0  0  0  0  0  0  0  0  0
    1.2743    2.5724   -1.5407 H   0  0  0  0  0  0  0  0  0  0  0  0
   -4.7402   -0.9949    0.2945 H   0  0  0  0  0  0  0  0  0  0  0  0
   -3.4880   -1.5846   -0.8264 H   0  0  0  0  0  0  0  0  0  0  0  0
    3.0909   -3.4555    0.1786 H   0  0  0  0  0  0  0  0  0  0  0  0
    1.8592   -2.8557    1.3167 H   0  0  0  0  0  0  0  0  0  0  0  0
    0.7212    3.2234    1.4081 H   0  0  0  0  0  0  0  0  0  0  0  0
    1.6747    4.2131    0.2852 H   0  0  0  0  0  0  0  0  0  0  0  0
   -4.5224    0.2961   -1.5661 H   0  0  0  0  0  0  0  0  0  0  0  0
    3.8373   -1.7558    1.4934 H   0  0  0  0  0  0  0  0  0  0  0  0
    3.0784    2.4134    0.0430 H   0  0  0  0  0  0  0  0  0  0  0  0
  1 10  2  0  0  0  0
  2 11  2  0  0  0  0
  3 12  2  0  0  0  0
  4 16  1  0  0  0  0
  4 31  1  0  0  0  0
  5 17  1  0  0  0  0
  5 32  1  0  0  0  0
  6 18  1  0  0  0  0
  6 33  1  0  0  0  0
  7 10  1  0  0  0  0
  7 11  1  0  0  0  0
  7 13  1  0  0  0  0
  8 10  1  0  0  0  0
  8 12  1  0  0  0  0
  8 14  1  0  0  0  0
  9 11  1  0  0  0  0
  9 12  1  0  0  0  0
  9 15  1  0  0  0  0
 13 16  1  0  0  0  0
 13 19  1  0  0  0  0
 13 20  1  0  0  0  0
 14 17  1  0  0  0  0
 14 21  1  0  0  0  0
 14 22  1  0  0  0  0
 15 18  1  0  0  0  0
 15 23  1  0  0  0  0
 15 24  1  0  0  0  0
 16 25  1  0  0  0  0
 16 26  1  0  0  0  0
 17 27  1  0  0  0  0
 17 28  1  0  0  0  0
 18 29  1  0  0  0  0
 18 30  1  0  0  0  0
M  END
> <PUBCHEM_COMPOUND_CID>
13286

> <PUBCHEM_CONFORMER_RMSD>
0.8

> <PUBCHEM_CONFORMER_DIVERSEORDER>
2
6
4
1
5
3

> <PUBCHEM_MMFF94_PARTIAL_CHARGES>
21
1 -0.57
10 0.69
11 0.69
12 0.69
13 0.3
14 0.3
15 0.3
16 0.28
17 0.28
18 0.28
2 -0.57
3 -0.57
31 0.4
32 0.4
33 0.4
4 -0.68
5 -0.68
6 -0.68
7 -0.42
8 -0.42
9 -0.42

> <PUBCHEM_EFFECTIVE_ROTOR_COUNT>
6

> <PUBCHEM_PHARMACOPHORE_FEATURES>
10
1 1 acceptor
1 2 acceptor
1 3 acceptor
1 4 acceptor
1 4 donor
1 5 acceptor
1 5 donor
1 6 acceptor
1 6 donor
6 7 8 9 10 11 12 rings

> <PUBCHEM_HEAVY_ATOM_COUNT>
18

> <PUBCHEM_ATOM_DEF_STEREO_COUNT>
0

> <PUBCHEM_ATOM_UDEF_STEREO_COUNT>
0

> <PUBCHEM_BOND_DEF_STEREO_COUNT>
0

> <PUBCHEM_BOND_UDEF_STEREO_COUNT>
0

> <PUBCHEM_ISOTOPIC_ATOM_COUNT>
0

> <PUBCHEM_COMPONENT_COUNT>
1

> <PUBCHEM_CACTVS_TAUTO_COUNT>
1

> <PUBCHEM_CONFORMER_ID>
000033E600000002

> <PUBCHEM_MMFF94_ENERGY>
21.4608

> <PUBCHEM_FEATURE_SELFOVERLAP>
50.751

> <PUBCHEM_SHAPE_FINGERPRINT>
10967382 1 18338509729629803157
11680986 33 18339640019056707802
12011746 2 18409736162145215852
12382932 28 18049435147765417010
13083527 12 18263663817254156663
13140716 1 18049427154651892242
13380535 76 18049726213620312279
14181834 199 18339647750171946695
14817 1 15550839903128549060
15490181 7 17906440039778937854
16945 1 18337657634025276015
20510252 161 17400359443792305320
20645476 183 17193749723916884700
21029758 11 18338518671809943590
21524375 3 17757826728148074615
22112679 90 18119232111557939523
22344851 341 17975966571034568338
2334 1 17616517467987055271
23388829 49 18268149940612432295
23402539 116 18191884511301332447
23419403 2 17985016840305763012
23557571 272 17900825169151215750
257057 1 18267588098686330631
2748010 2 18267854163362516391
305870 269 18051413968047663912
3071541 236 17255968866302416504
5845 1 17832681827691057717
7364860 26 18408884001525355210
81228 2 17620740017807880771

> <PUBCHEM_SHAPE_MULTIPOLES>
320.27
4.81
3.69
0.95
3.33
1.17
0.05
-1.24
-0.19
-2.9
-0.53
-0.14
0.07
0.17

> <PUBCHEM_SHAPE_SELFOVERLAP>
646.597

> <PUBCHEM_SHAPE_VOLUME>
185.4

> <PUBCHEM_COORDINATE_TYPE>
2
5
10

$$$$

