11923
  -OEChem-06261206172D

 18 18  0     0  0  0  0  0  0999 V2000
    2.5369   -0.2500    0.0000 O   0  0  0  0  0  0  0  0  0  0  0  0
    6.0010    1.7500    0.0000 O   0  5  0  0  0  0  0  0  0  0  0  0
    4.2690    1.7500    0.0000 O   0  0  0  0  0  0  0  0  0  0  0  0
    5.1350    1.2500    0.0000 N   0  3  0  0  0  0  0  0  0  0  0  0
    4.2690   -0.2500    0.0000 C   0  0  0  0  0  0  0  0  0  0  0  0
    5.1350    0.2500    0.0000 C   0  0  0  0  0  0  0  0  0  0  0  0
    3.4030    0.2500    0.0000 C   0  0  0  0  0  0  0  0  0  0  0  0
    4.2690   -1.2500    0.0000 C   0  0  0  0  0  0  0  0  0  0  0  0
    6.0010   -0.2500    0.0000 C   0  0  0  0  0  0  0  0  0  0  0  0
    5.1350   -1.7500    0.0000 C   0  0  0  0  0  0  0  0  0  0  0  0
    6.0010   -1.2500    0.0000 C   0  0  0  0  0  0  0  0  0  0  0  0
    3.8015    0.7249    0.0000 H   0  0  0  0  0  0  0  0  0  0  0  0
    3.0044    0.7249    0.0000 H   0  0  0  0  0  0  0  0  0  0  0  0
    3.7320   -1.5600    0.0000 H   0  0  0  0  0  0  0  0  0  0  0  0
    6.5380    0.0600    0.0000 H   0  0  0  0  0  0  0  0  0  0  0  0
    5.1350   -2.3700    0.0000 H   0  0  0  0  0  0  0  0  0  0  0  0
    6.5380   -1.5600    0.0000 H   0  0  0  0  0  0  0  0  0  0  0  0
    2.0000    0.0600    0.0000 H   0  0  0  0  0  0  0  0  0  0  0  0
  1  7  1  0  0  0  0
  1 18  1  0  0  0  0
  2  4  1  0  0  0  0
  3  4  2  0  0  0  0
  4  6  1  0  0  0  0
  5  6  1  0  0  0  0
  5  7  1  0  0  0  0
  5  8  2  0  0  0  0
  6  9  2  0  0  0  0
  7 12  1  0  0  0  0
  7 13  1  0  0  0  0
  8 10  1  0  0  0  0
  8 14  1  0  0  0  0
  9 11  1  0  0  0  0
  9 15  1  0  0  0  0
 10 11  2  0  0  0  0
 10 16  1  0  0  0  0
 11 17  1  0  0  0  0
M  CHG  2   2  -1   4   1
M  END
> <PUBCHEM_COMPOUND_CID>
11923

> <PUBCHEM_COMPOUND_CANONICALIZED>
1

> <PUBCHEM_CACTVS_COMPLEXITY>
143

> <PUBCHEM_CACTVS_HBOND_ACCEPTOR>
3

> <PUBCHEM_CACTVS_HBOND_DONOR>
1

> <PUBCHEM_CACTVS_ROTATABLE_BOND>
1

> <PUBCHEM_CACTVS_SUBSKEYS>
AAADcYBiMAAAAAAAAAAAAAAAAAAAAAAAAAAwAAAAAAAAAAABAAAAHgAECAAADAihmAIwwIAQQgCBAiRCQwCCAAAgAgAoiAAAbIoINiKAkZGAcABmwAEI2AeQwCAOAAAAAAACAAAAAAAAAAQAAAAAAAAAAA==

> <PUBCHEM_IUPAC_OPENEYE_NAME>
(2-nitrophenyl)methanol

> <PUBCHEM_IUPAC_CAS_NAME>
(2-nitrophenyl)methanol

> <PUBCHEM_IUPAC_NAME>
(2-nitrophenyl)methanol

> <PUBCHEM_IUPAC_SYSTEMATIC_NAME>
(2-nitrophenyl)methanol

> <PUBCHEM_IUPAC_TRADITIONAL_NAME>
(2-nitrophenyl)methanol

> <PUBCHEM_IUPAC_INCHI>
InChI=1S/C7H7NO3/c9-5-6-3-1-2-4-7(6)8(10)11/h1-4,9H,5H2

> <PUBCHEM_IUPAC_INCHIKEY>
BWRBVBFLFQKBPT-UHFFFAOYSA-N

> <PUBCHEM_XLOGP3>
1.2

> <PUBCHEM_EXACT_MASS>
153.042593

> <PUBCHEM_MOLECULAR_FORMULA>
C7H7NO3

> <PUBCHEM_MOLECULAR_WEIGHT>
153.13538

> <PUBCHEM_OPENEYE_CAN_SMILES>
C1=CC=C(C(=C1)CO)[N+](=O)[O-]

> <PUBCHEM_OPENEYE_ISO_SMILES>
C1=CC=C(C(=C1)CO)[N+](=O)[O-]

> <PUBCHEM_CACTVS_TPSA>
66

> <PUBCHEM_MONOISOTOPIC_WEIGHT>
153.042593

> <PUBCHEM_TOTAL_CHARGE>
0

> <PUBCHEM_HEAVY_ATOM_COUNT>
11

> <PUBCHEM_ATOM_DEF_STEREO_COUNT>
0

> <PUBCHEM_ATOM_UDEF_STEREO_COUNT>
0

> <PUBCHEM_BOND_DEF_STEREO_COUNT>
0

> <PUBCHEM_BOND_UDEF_STEREO_COUNT>
0

> <PUBCHEM_ISOTOPIC_ATOM_COUNT>
0

> <PUBCHEM_COMPONENT_COUNT>
1

> <PUBCHEM_CACTVS_TAUTO_COUNT>
1

> <PUBCHEM_COORDINATE_TYPE>
1
5
255

> <PUBCHEM_BONDANNOTATIONS>
10  11  8
5  6  8
5  8  8
6  9  8
8  10  8
9  11  8

$$$$

