9628
  -OEChem-06261203533D

  8  7  0     1  0  0  0  0  0999 V2000
   -1.7185    1.3752   -0.4352 Br  0  0  0  0  0  0  0  0  0  0  0  0
    1.6826    1.4036    0.1466 Cl  0  0  0  0  0  0  0  0  0  0  0  0
   -0.5385   -0.2671    1.3956 F   0  0  0  0  0  0  0  0  0  0  0  0
   -1.1483   -1.2700   -0.4370 F   0  0  0  0  0  0  0  0  0  0  0  0
    1.5046   -1.1185   -0.1969 F   0  0  0  0  0  0  0  0  0  0  0  0
   -0.5892   -0.1300    0.0476 C   0  0  0  0  0  0  0  0  0  0  0  0
    0.8073    0.0069   -0.5207 C   0  0  1  0  0  0  0  0  0  0  0  0
    0.8005    0.0871   -1.6117 H   0  0  0  0  0  0  0  0  0  0  0  0
  1  6  1  0  0  0  0
  2  7  1  0  0  0  0
  3  6  1  0  0  0  0
  4  6  1  0  0  0  0
  5  7  1  0  0  0  0
  6  7  1  0  0  0  0
  7  8  1  0  0  0  0
M  END
> <PUBCHEM_COMPOUND_CID>
9628

> <PUBCHEM_CONFORMER_RMSD>
0.4

> <PUBCHEM_CONFORMER_DIVERSEORDER>
1
4
5
3
6
2

> <PUBCHEM_MMFF94_PARTIAL_CHARGES>
7
1 -0.23
2 -0.29
3 -0.34
4 -0.34
5 -0.34
6 0.91
7 0.63

> <PUBCHEM_EFFECTIVE_ROTOR_COUNT>
1

> <PUBCHEM_PHARMACOPHORE_FEATURES>
1
1 1 hydrophobe

> <PUBCHEM_HEAVY_ATOM_COUNT>
7

> <PUBCHEM_ATOM_DEF_STEREO_COUNT>
0

> <PUBCHEM_ATOM_UDEF_STEREO_COUNT>
1

> <PUBCHEM_BOND_DEF_STEREO_COUNT>
0

> <PUBCHEM_BOND_UDEF_STEREO_COUNT>
0

> <PUBCHEM_ISOTOPIC_ATOM_COUNT>
0

> <PUBCHEM_COMPONENT_COUNT>
1

> <PUBCHEM_CACTVS_TAUTO_COUNT>
1

> <PUBCHEM_CONFORMER_ID>
0000259C00000001

> <PUBCHEM_MMFF94_ENERGY>
2.0659

> <PUBCHEM_FEATURE_SELFOVERLAP>
5.074

> <PUBCHEM_SHAPE_FINGERPRINT>
20096714 4 18269840980905809461
21040471 1 18340770432926874733
29004967 10 17910104716503199955
5084963 1 17702372047726991629
5943 1 9131293161030566683

> <PUBCHEM_SHAPE_MULTIPOLES>
130.05
2.25
1.57
0.9
0.1
0.24
-0.23
0.8
0.24
-0.05
0.1
0.1
-0.06
0.19

> <PUBCHEM_SHAPE_SELFOVERLAP>
222.408

> <PUBCHEM_SHAPE_VOLUME>
89.8

> <PUBCHEM_COORDINATE_TYPE>
2
5
10

$$$$

