14077
  -OEChem-06241222412D

 15 15  0     0  0  0  0  0  0999 V2000
    2.5000   -1.3170    0.0000 N   0  0  0  0  0  0  0  0  0  0  0  0
    3.3660    2.1830    0.0000 N   0  0  0  0  0  0  0  0  0  0  0  0
    2.0000   -2.1830    0.0000 C   0  0  0  0  0  0  0  0  0  0  0  0
    3.0000   -2.1830    0.0000 C   0  0  0  0  0  0  0  0  0  0  0  0
    2.5000   -0.3170    0.0000 C   0  0  0  0  0  0  0  0  0  0  0  0
    3.3660    0.1830    0.0000 C   0  0  0  0  0  0  0  0  0  0  0  0
    3.3660    1.1830    0.0000 C   0  0  0  0  0  0  0  0  0  0  0  0
    1.4174   -1.9710    0.0000 H   0  0  0  0  0  0  0  0  0  0  0  0
    1.8923   -2.7936    0.0000 H   0  0  0  0  0  0  0  0  0  0  0  0
    3.1077   -2.7936    0.0000 H   0  0  0  0  0  0  0  0  0  0  0  0
    3.5826   -1.9710    0.0000 H   0  0  0  0  0  0  0  0  0  0  0  0
    2.2880    0.2656    0.0000 H   0  0  0  0  0  0  0  0  0  0  0  0
    1.8894   -0.4246    0.0000 H   0  0  0  0  0  0  0  0  0  0  0  0
    3.5781   -0.3996    0.0000 H   0  0  0  0  0  0  0  0  0  0  0  0
    3.9766    0.2907    0.0000 H   0  0  0  0  0  0  0  0  0  0  0  0
  1  3  1  0  0  0  0
  1  4  1  0  0  0  0
  1  5  1  0  0  0  0
  2  7  3  0  0  0  0
  3  4  1  0  0  0  0
  3  8  1  0  0  0  0
  3  9  1  0  0  0  0
  4 10  1  0  0  0  0
  4 11  1  0  0  0  0
  5  6  1  0  0  0  0
  5 12  1  0  0  0  0
  5 13  1  0  0  0  0
  6  7  1  0  0  0  0
  6 14  1  0  0  0  0
  6 15  1  0  0  0  0
M  END
> <PUBCHEM_COMPOUND_CID>
14077

> <PUBCHEM_COMPOUND_CANONICALIZED>
1

> <PUBCHEM_CACTVS_COMPLEXITY>
95.9

> <PUBCHEM_CACTVS_HBOND_ACCEPTOR>
2

> <PUBCHEM_CACTVS_HBOND_DONOR>
0

> <PUBCHEM_CACTVS_ROTATABLE_BOND>
2

> <PUBCHEM_CACTVS_SUBSKEYS>
AAADccBjAAAAAAAAAAAAAAAAFgAAAAAAAAAAAAAAAAAAAAAAAAAAHAAAAAAACADBAAQAAAMAAAAQBAAAAAAAAAAAAAAAAAAIAAAAgAAAAAAEAAAAAACAAAAAAAAAAAAAAAAAAAAAAAAAAAAAAAAAAAAAAA==

> <PUBCHEM_IUPAC_OPENEYE_NAME>
3-(aziridin-1-yl)propanenitrile

> <PUBCHEM_IUPAC_CAS_NAME>
3-(1-aziridinyl)propanenitrile

> <PUBCHEM_IUPAC_NAME>
3-(aziridin-1-yl)propanenitrile

> <PUBCHEM_IUPAC_SYSTEMATIC_NAME>
3-(aziridin-1-yl)propanenitrile

> <PUBCHEM_IUPAC_TRADITIONAL_NAME>
3-ethyleniminopropionitrile

> <PUBCHEM_IUPAC_INCHI>
InChI=1S/C5H8N2/c6-2-1-3-7-4-5-7/h1,3-5H2

> <PUBCHEM_IUPAC_INCHIKEY>
OUZLDCCUOMNCON-UHFFFAOYSA-N

> <PUBCHEM_XLOGP3_AA>
-0.3

> <PUBCHEM_EXACT_MASS>
96.068748

> <PUBCHEM_MOLECULAR_FORMULA>
C5H8N2

> <PUBCHEM_MOLECULAR_WEIGHT>
96.13042

> <PUBCHEM_OPENEYE_CAN_SMILES>
C1CN1CCC#N

> <PUBCHEM_OPENEYE_ISO_SMILES>
C1CN1CCC#N

> <PUBCHEM_CACTVS_TPSA>
26.8

> <PUBCHEM_MONOISOTOPIC_WEIGHT>
96.068748

> <PUBCHEM_TOTAL_CHARGE>
0

> <PUBCHEM_HEAVY_ATOM_COUNT>
7

> <PUBCHEM_ATOM_DEF_STEREO_COUNT>
0

> <PUBCHEM_ATOM_UDEF_STEREO_COUNT>
0

> <PUBCHEM_BOND_DEF_STEREO_COUNT>
0

> <PUBCHEM_BOND_UDEF_STEREO_COUNT>
0

> <PUBCHEM_ISOTOPIC_ATOM_COUNT>
0

> <PUBCHEM_COMPONENT_COUNT>
1

> <PUBCHEM_CACTVS_TAUTO_COUNT>
1

> <PUBCHEM_COORDINATE_TYPE>
1
5
255

$$$$

