12909
  -OEChem-06261207312D

 33 35  0     0  0  0  0  0  0999 V2000
    5.4641    2.0000    0.0000 S   0  0  0  0  0  0  0  0  0  0  0  0
    5.4641   -1.0000    0.0000 N   0  0  0  0  0  0  0  0  0  0  0  0
    6.3301    0.5000    0.0000 N   0  0  0  0  0  0  0  0  0  0  0  0
    4.5981    0.5000    0.0000 N   0  0  0  0  0  0  0  0  0  0  0  0
    3.7320   -1.0000    0.0000 C   0  0  0  0  0  0  0  0  0  0  0  0
    7.1962   -1.0000    0.0000 C   0  0  0  0  0  0  0  0  0  0  0  0
    4.5981   -0.5000    0.0000 C   0  0  0  0  0  0  0  0  0  0  0  0
    6.3301   -0.5000    0.0000 C   0  0  0  0  0  0  0  0  0  0  0  0
    2.8660   -0.5000    0.0000 C   0  0  0  0  0  0  0  0  0  0  0  0
    3.7320   -2.0000    0.0000 C   0  0  0  0  0  0  0  0  0  0  0  0
    7.1962   -2.0000    0.0000 C   0  0  0  0  0  0  0  0  0  0  0  0
    8.0622   -0.5000    0.0000 C   0  0  0  0  0  0  0  0  0  0  0  0
    5.4641    1.0000    0.0000 C   0  0  0  0  0  0  0  0  0  0  0  0
    2.0000   -1.0000    0.0000 C   0  0  0  0  0  0  0  0  0  0  0  0
    2.8660   -2.5000    0.0000 C   0  0  0  0  0  0  0  0  0  0  0  0
    8.0622   -2.5000    0.0000 C   0  0  0  0  0  0  0  0  0  0  0  0
    8.9282   -1.0000    0.0000 C   0  0  0  0  0  0  0  0  0  0  0  0
    2.0000   -2.0000    0.0000 C   0  0  0  0  0  0  0  0  0  0  0  0
    8.9282   -2.0000    0.0000 C   0  0  0  0  0  0  0  0  0  0  0  0
    6.3301    2.5000    0.0000 C   0  0  0  0  0  0  0  0  0  0  0  0
    2.8660    0.1200    0.0000 H   0  0  0  0  0  0  0  0  0  0  0  0
    4.2690   -2.3100    0.0000 H   0  0  0  0  0  0  0  0  0  0  0  0
    6.6592   -2.3100    0.0000 H   0  0  0  0  0  0  0  0  0  0  0  0
    8.0622    0.1200    0.0000 H   0  0  0  0  0  0  0  0  0  0  0  0
    1.4631   -0.6900    0.0000 H   0  0  0  0  0  0  0  0  0  0  0  0
    2.8660   -3.1200    0.0000 H   0  0  0  0  0  0  0  0  0  0  0  0
    8.0622   -3.1200    0.0000 H   0  0  0  0  0  0  0  0  0  0  0  0
    9.4651   -0.6900    0.0000 H   0  0  0  0  0  0  0  0  0  0  0  0
    1.4631   -2.3100    0.0000 H   0  0  0  0  0  0  0  0  0  0  0  0
    9.4651   -2.3100    0.0000 H   0  0  0  0  0  0  0  0  0  0  0  0
    6.6401    1.9631    0.0000 H   0  0  0  0  0  0  0  0  0  0  0  0
    6.8671    2.8100    0.0000 H   0  0  0  0  0  0  0  0  0  0  0  0
    6.0201    3.0369    0.0000 H   0  0  0  0  0  0  0  0  0  0  0  0
  1 13  1  0  0  0  0
  1 20  1  0  0  0  0
  2  7  2  0  0  0  0
  2  8  1  0  0  0  0
  3  8  2  0  0  0  0
  3 13  1  0  0  0  0
  4  7  1  0  0  0  0
  4 13  2  0  0  0  0
  5  7  1  0  0  0  0
  5  9  2  0  0  0  0
  5 10  1  0  0  0  0
  6  8  1  0  0  0  0
  6 11  2  0  0  0  0
  6 12  1  0  0  0  0
  9 14  1  0  0  0  0
  9 21  1  0  0  0  0
 10 15  2  0  0  0  0
 10 22  1  0  0  0  0
 11 16  1  0  0  0  0
 11 23  1  0  0  0  0
 12 17  2  0  0  0  0
 12 24  1  0  0  0  0
 14 18  2  0  0  0  0
 14 25  1  0  0  0  0
 15 18  1  0  0  0  0
 15 26  1  0  0  0  0
 16 19  2  0  0  0  0
 16 27  1  0  0  0  0
 17 19  1  0  0  0  0
 17 28  1  0  0  0  0
 18 29  1  0  0  0  0
 19 30  1  0  0  0  0
 20 31  1  0  0  0  0
 20 32  1  0  0  0  0
 20 33  1  0  0  0  0
M  END
> <PUBCHEM_COMPOUND_CID>
12909

> <PUBCHEM_COMPOUND_CANONICALIZED>
1

> <PUBCHEM_CACTVS_COMPLEXITY>
261

> <PUBCHEM_CACTVS_HBOND_ACCEPTOR>
4

> <PUBCHEM_CACTVS_HBOND_DONOR>
0

> <PUBCHEM_CACTVS_ROTATABLE_BOND>
3

> <PUBCHEM_CACTVS_SUBSKEYS>
AAADccB7AABAAAAAAAAAAAAAAAAAAAAAAAA8YIAAAAAAAAAB0AAAHAQAAAAADACBGwCzEIYIEAigAiJiJACC0AlgAKAJiCAgBJiIKKKAmRGEIAhogAKIiAcQgAAOAAAAAAAAAAAAAAAAAAAAAAAAAAAAAA==

> <PUBCHEM_IUPAC_OPENEYE_NAME>
2-methylsulfanyl-4,6-diphenyl-1,3,5-triazine

> <PUBCHEM_IUPAC_CAS_NAME>
2-(methylthio)-4,6-diphenyl-1,3,5-triazine

> <PUBCHEM_IUPAC_NAME>
2-methylsulfanyl-4,6-diphenyl-1,3,5-triazine

> <PUBCHEM_IUPAC_SYSTEMATIC_NAME>
2-methylsulfanyl-4,6-diphenyl-1,3,5-triazine

> <PUBCHEM_IUPAC_TRADITIONAL_NAME>
2-(methylthio)-4,6-diphenyl-s-triazine

> <PUBCHEM_IUPAC_INCHI>
InChI=1S/C16H13N3S/c1-20-16-18-14(12-8-4-2-5-9-12)17-15(19-16)13-10-6-3-7-11-13/h2-11H,1H3

> <PUBCHEM_IUPAC_INCHIKEY>
KZTKYEIHHXCHCS-UHFFFAOYSA-N

> <PUBCHEM_XLOGP3_AA>
4.1

> <PUBCHEM_EXACT_MASS>
279.083018

> <PUBCHEM_MOLECULAR_FORMULA>
C16H13N3S

> <PUBCHEM_MOLECULAR_WEIGHT>
279.35952

> <PUBCHEM_OPENEYE_CAN_SMILES>
CSC1=NC(=NC(=N1)C2=CC=CC=C2)C3=CC=CC=C3

> <PUBCHEM_OPENEYE_ISO_SMILES>
CSC1=NC(=NC(=N1)C2=CC=CC=C2)C3=CC=CC=C3

> <PUBCHEM_CACTVS_TPSA>
64

> <PUBCHEM_MONOISOTOPIC_WEIGHT>
279.083018

> <PUBCHEM_TOTAL_CHARGE>
0

> <PUBCHEM_HEAVY_ATOM_COUNT>
20

> <PUBCHEM_ATOM_DEF_STEREO_COUNT>
0

> <PUBCHEM_ATOM_UDEF_STEREO_COUNT>
0

> <PUBCHEM_BOND_DEF_STEREO_COUNT>
0

> <PUBCHEM_BOND_UDEF_STEREO_COUNT>
0

> <PUBCHEM_ISOTOPIC_ATOM_COUNT>
0

> <PUBCHEM_COMPONENT_COUNT>
1

> <PUBCHEM_CACTVS_TAUTO_COUNT>
1

> <PUBCHEM_COORDINATE_TYPE>
1
5
255

> <PUBCHEM_BONDANNOTATIONS>
10  15  8
11  16  8
12  17  8
14  18  8
15  18  8
16  19  8
17  19  8
2  7  8
2  8  8
3  13  8
3  8  8
4  13  8
4  7  8
5  10  8
5  9  8
6  11  8
6  12  8
9  14  8

$$$$

