5616
  -OEChem-06261200462D

 61 65  0     0  0  0  0  0  0999 V2000
    8.8212   -0.8037    0.0000 O   0  0  0  0  0  0  0  0  0  0  0  0
    5.2163   -0.7343    0.0000 N   0  3  0  0  0  0  0  0  0  0  0  0
    6.8893   -0.2860    0.0000 N   0  0  0  0  0  0  0  0  0  0  0  0
    5.6646    0.9387    0.0000 N   0  0  0  0  0  0  0  0  0  0  0  0
    3.6730   -0.9586    0.0000 C   0  0  0  0  0  0  0  0  0  0  0  0
    4.5092   -2.4070    0.0000 C   0  0  0  0  0  0  0  0  0  0  0  0
    4.5092   -1.4414    0.0000 C   0  0  0  0  0  0  0  0  0  0  0  0
    2.8368   -2.4070    0.0000 C   0  0  0  0  0  0  0  0  0  0  0  0
    2.9819   -2.8421    0.0000 C   0  0  0  0  0  0  0  0  0  0  0  0
    2.8368   -1.4414    0.0000 C   0  0  0  0  0  0  0  0  0  0  0  0
    2.9819   -1.7968    0.0000 C   0  0  0  0  0  0  0  0  0  0  0  0
    3.6730   -2.7097    0.0000 C   0  0  0  0  0  0  0  0  0  0  0  0
    3.8876   -3.3189    0.0000 C   0  0  0  0  0  0  0  0  0  0  0  0
    2.0000   -2.8897    0.0000 C   0  0  0  0  0  0  0  0  0  0  0  0
    5.9234   -0.0272    0.0000 C   0  0  0  0  0  0  0  0  0  0  0  0
    6.3717    1.6458    0.0000 C   0  0  0  0  0  0  0  0  0  0  0  0
    7.5964    0.4211    0.0000 C   0  0  0  0  0  0  0  0  0  0  0  0
    7.1481   -1.2519    0.0000 C   0  0  0  0  0  0  0  0  0  0  0  0
    7.3376    1.3870    0.0000 C   0  0  0  0  0  0  0  0  0  0  0  0
    6.1128    2.6117    0.0000 C   0  0  0  0  0  0  0  0  0  0  0  0
    8.5624    0.1623    0.0000 C   0  0  0  0  0  0  0  0  0  0  0  0
    8.1141   -1.5108    0.0000 C   0  0  0  0  0  0  0  0  0  0  0  0
    8.0447    2.0941    0.0000 C   0  0  0  0  0  0  0  0  0  0  0  0
    6.8200    3.3189    0.0000 C   0  0  0  0  0  0  0  0  0  0  0  0
    7.7859    3.0600    0.0000 C   0  0  0  0  0  0  0  0  0  0  0  0
    5.1016   -2.5897    0.0000 H   0  0  0  0  0  0  0  0  0  0  0  0
    3.6730   -0.3386    0.0000 H   0  0  0  0  0  0  0  0  0  0  0  0
    5.0820   -1.6787    0.0000 H   0  0  0  0  0  0  0  0  0  0  0  0
    2.8478   -3.4474    0.0000 H   0  0  0  0  0  0  0  0  0  0  0  0
    2.8912   -3.0246    0.0000 H   0  0  0  0  0  0  0  0  0  0  0  0
    2.6247   -0.8588    0.0000 H   0  0  0  0  0  0  0  0  0  0  0  0
    2.2262   -1.5491    0.0000 H   0  0  0  0  0  0  0  0  0  0  0  0
    3.5782   -3.8561    0.0000 H   0  0  0  0  0  0  0  0  0  0  0  0
    4.4127   -3.6484    0.0000 H   0  0  0  0  0  0  0  0  0  0  0  0
    3.3030   -3.2073    0.0000 H   0  0  0  0  0  0  0  0  0  0  0  0
    4.0430   -3.2072    0.0000 H   0  0  0  0  0  0  0  0  0  0  0  0
    2.6383   -1.2807    0.0000 H   0  0  0  0  0  0  0  0  0  0  0  0
    2.3885   -1.9763    0.0000 H   0  0  0  0  0  0  0  0  0  0  0  0
    1.5188   -2.4988    0.0000 H   0  0  0  0  0  0  0  0  0  0  0  0
    1.8068   -3.4789    0.0000 H   0  0  0  0  0  0  0  0  0  0  0  0
    5.6547   -1.1727    0.0000 H   0  0  0  0  0  0  0  0  0  0  0  0
    4.7779   -0.2959    0.0000 H   0  0  0  0  0  0  0  0  0  0  0  0
    5.7728    1.8063    0.0000 H   0  0  0  0  0  0  0  0  0  0  0  0
    6.5305   -1.3060    0.0000 H   0  0  0  0  0  0  0  0  0  0  0  0
    7.0941   -1.8696    0.0000 H   0  0  0  0  0  0  0  0  0  0  0  0
    7.8584    0.9830    0.0000 H   0  0  0  0  0  0  0  0  0  0  0  0
    7.0886    0.7767    0.0000 H   0  0  0  0  0  0  0  0  0  0  0  0
    7.0756    0.8251    0.0000 H   0  0  0  0  0  0  0  0  0  0  0  0
    7.8455    1.0314    0.0000 H   0  0  0  0  0  0  0  0  0  0  0  0
    5.7572    3.1196    0.0000 H   0  0  0  0  0  0  0  0  0  0  0  0
    5.5509    2.3497    0.0000 H   0  0  0  0  0  0  0  0  0  0  0  0
    8.4003    1.5862    0.0000 H   0  0  0  0  0  0  0  0  0  0  0  0
    8.6066    2.3561    0.0000 H   0  0  0  0  0  0  0  0  0  0  0  0
    7.0820    3.8808    0.0000 H   0  0  0  0  0  0  0  0  0  0  0  0
    6.3121    3.6745    0.0000 H   0  0  0  0  0  0  0  0  0  0  0  0
    9.1800    0.2163    0.0000 H   0  0  0  0  0  0  0  0  0  0  0  0
    8.6164    0.7799    0.0000 H   0  0  0  0  0  0  0  0  0  0  0  0
    7.8520   -2.0727    0.0000 H   0  0  0  0  0  0  0  0  0  0  0  0
    8.6219   -1.8664    0.0000 H   0  0  0  0  0  0  0  0  0  0  0  0
    8.4035    3.1141    0.0000 H   0  0  0  0  0  0  0  0  0  0  0  0
    7.8399    3.6777    0.0000 H   0  0  0  0  0  0  0  0  0  0  0  0
  1 21  1  0  0  0  0
  1 22  1  0  0  0  0
  2  7  1  0  0  0  0
  2 15  1  0  0  0  0
  2 41  1  0  0  0  0
  2 42  1  0  0  0  0
  3 15  1  0  0  0  0
  3 17  1  0  0  0  0
  3 18  1  0  0  0  0
  4 15  2  0  0  0  0
  4 16  1  0  0  0  0
  5  7  1  0  0  0  0
  5 10  1  0  0  0  0
  5 11  1  0  0  0  0
  5 27  1  0  0  0  0
  6  7  1  0  0  0  0
  6 12  1  0  0  0  0
  6 13  1  0  0  0  0
  6 26  1  0  0  0  0
  7 28  1  0  0  0  0
  8 10  1  0  0  0  0
  8 12  1  0  0  0  0
  8 14  1  0  0  0  0
  8 30  1  0  0  0  0
  9 11  1  0  0  0  0
  9 13  1  0  0  0  0
  9 14  1  0  0  0  0
  9 29  1  0  0  0  0
 10 31  1  0  0  0  0
 10 32  1  0  0  0  0
 11 37  1  0  0  0  0
 11 38  1  0  0  0  0
 12 35  1  0  0  0  0
 12 36  1  0  0  0  0
 13 33  1  0  0  0  0
 13 34  1  0  0  0  0
 14 39  1  0  0  0  0
 14 40  1  0  0  0  0
 16 19  1  0  0  0  0
 16 20  1  0  0  0  0
 16 43  1  0  0  0  0
 17 21  1  0  0  0  0
 17 46  1  0  0  0  0
 17 47  1  0  0  0  0
 18 22  1  0  0  0  0
 18 44  1  0  0  0  0
 18 45  1  0  0  0  0
 19 23  1  0  0  0  0
 19 48  1  0  0  0  0
 19 49  1  0  0  0  0
 20 24  1  0  0  0  0
 20 50  1  0  0  0  0
 20 51  1  0  0  0  0
 21 56  1  0  0  0  0
 21 57  1  0  0  0  0
 22 58  1  0  0  0  0
 22 59  1  0  0  0  0
 23 25  1  0  0  0  0
 23 52  1  0  0  0  0
 23 53  1  0  0  0  0
 24 25  1  0  0  0  0
 24 54  1  0  0  0  0
 24 55  1  0  0  0  0
 25 60  1  0  0  0  0
 25 61  1  0  0  0  0
M  CHG  1   2   1
M  END
> <PUBCHEM_COMPOUND_CID>
5616

> <PUBCHEM_COMPOUND_CANONICALIZED>
1

> <PUBCHEM_CACTVS_COMPLEXITY>
465

> <PUBCHEM_CACTVS_HBOND_ACCEPTOR>
2

> <PUBCHEM_CACTVS_HBOND_DONOR>
1

> <PUBCHEM_CACTVS_ROTATABLE_BOND>
4

> <PUBCHEM_CACTVS_SUBSKEYS>
AAADcfB7IAAAAAAAAAAAAAAAAAAAAAAAAAA8YMGDAAAAAAAAAAAAHgAQAAAADSjhgAYBAAPABAAgAAAAJAAAAAEAAAABAIAIAACCAAIAiAAHAAAIEAKQAAEQgMAOAAAAAAAAAAAQAAQAAAQAAAAAAAAAAA==

> <PUBCHEM_IUPAC_OPENEYE_NAME>
2-adamantyl-(N-cyclohexyl-C-morpholino-carbonimidoyl)ammonium

> <PUBCHEM_IUPAC_CAS_NAME>
2-adamantyl-[cyclohexylimino(4-morpholinyl)methyl]ammonium

> <PUBCHEM_IUPAC_NAME>
2-adamantyl-(N-cyclohexyl-C-morpholin-4-ylcarbonimidoyl)azanium

> <PUBCHEM_IUPAC_SYSTEMATIC_NAME>
2-adamantyl-(N-cyclohexyl-C-morpholin-4-yl-carbonimidoyl)azanium

> <PUBCHEM_IUPAC_TRADITIONAL_NAME>
2-adamantyl-(N-cyclohexyl-C-morpholino-carbonimidoyl)ammonium

> <PUBCHEM_IUPAC_INCHI>
InChI=1S/C21H35N3O/c1-2-4-19(5-3-1)22-21(24-6-8-25-9-7-24)23-20-17-11-15-10-16(13-17)14-18(20)12-15/h15-20H,1-14H2,(H,22,23)/p+1

> <PUBCHEM_IUPAC_INCHIKEY>
TYSWNCQHPKKRAE-UHFFFAOYSA-O

> <PUBCHEM_XLOGP3_AA>
3.5

> <PUBCHEM_EXACT_MASS>
346.285838

> <PUBCHEM_MOLECULAR_FORMULA>
C21H36N3O+

> <PUBCHEM_MOLECULAR_WEIGHT>
346.53004

> <PUBCHEM_OPENEYE_CAN_SMILES>
C1CCC(CC1)N=C([NH2+]C2C3CC4CC(C3)CC2C4)N5CCOCC5

> <PUBCHEM_OPENEYE_ISO_SMILES>
C1CCC(CC1)N=C([NH2+]C2C3CC4CC(C3)CC2C4)N5CCOCC5

> <PUBCHEM_CACTVS_TPSA>
41.4

> <PUBCHEM_MONOISOTOPIC_WEIGHT>
346.285838

> <PUBCHEM_TOTAL_CHARGE>
1

> <PUBCHEM_HEAVY_ATOM_COUNT>
25

> <PUBCHEM_ATOM_DEF_STEREO_COUNT>
0

> <PUBCHEM_ATOM_UDEF_STEREO_COUNT>
0

> <PUBCHEM_BOND_DEF_STEREO_COUNT>
0

> <PUBCHEM_BOND_UDEF_STEREO_COUNT>
0

> <PUBCHEM_ISOTOPIC_ATOM_COUNT>
0

> <PUBCHEM_COMPONENT_COUNT>
1

> <PUBCHEM_CACTVS_TAUTO_COUNT>
2

> <PUBCHEM_COORDINATE_TYPE>
1
5
255

$$$$

