6889
  -OEChem-06261201342D

 16 17  0     0  0  0  0  0  0999 V2000
    2.0000    0.8194    0.0000 Br  0  0  0  0  0  0  0  0  0  0  0  0
    5.8550    1.5747    0.0000 O   0  0  0  0  0  0  0  0  0  0  0  0
    7.1279   -0.1806    0.0000 O   0  0  0  0  0  0  0  0  0  0  0  0
    5.5443   -0.9853    0.0000 N   0  0  0  0  0  0  0  0  0  0  0  0
    4.5981    0.3194    0.0000 C   0  0  0  0  0  0  0  0  0  0  0  0
    4.5981   -0.6806    0.0000 C   0  0  0  0  0  0  0  0  0  0  0  0
    5.5443    0.6241    0.0000 C   0  0  0  0  0  0  0  0  0  0  0  0
    3.7320    0.8194    0.0000 C   0  0  0  0  0  0  0  0  0  0  0  0
    3.7320   -1.1806    0.0000 C   0  0  0  0  0  0  0  0  0  0  0  0
    6.1279   -0.1806    0.0000 C   0  0  0  0  0  0  0  0  0  0  0  0
    2.8660    0.3194    0.0000 C   0  0  0  0  0  0  0  0  0  0  0  0
    2.8660   -0.6806    0.0000 C   0  0  0  0  0  0  0  0  0  0  0  0
    5.7369   -1.5747    0.0000 H   0  0  0  0  0  0  0  0  0  0  0  0
    3.7320    1.4394    0.0000 H   0  0  0  0  0  0  0  0  0  0  0  0
    3.7320   -1.8006    0.0000 H   0  0  0  0  0  0  0  0  0  0  0  0
    2.3291   -0.9906    0.0000 H   0  0  0  0  0  0  0  0  0  0  0  0
  1 11  1  0  0  0  0
  2  7  2  0  0  0  0
  3 10  2  0  0  0  0
  4  6  1  0  0  0  0
  4 10  1  0  0  0  0
  4 13  1  0  0  0  0
  5  6  2  0  0  0  0
  5  7  1  0  0  0  0
  5  8  1  0  0  0  0
  6  9  1  0  0  0  0
  7 10  1  0  0  0  0
  8 11  2  0  0  0  0
  8 14  1  0  0  0  0
  9 12  2  0  0  0  0
  9 15  1  0  0  0  0
 11 12  1  0  0  0  0
 12 16  1  0  0  0  0
M  END
> <PUBCHEM_COMPOUND_CID>
6889

> <PUBCHEM_COMPOUND_CANONICALIZED>
1

> <PUBCHEM_CACTVS_COMPLEXITY>
241

> <PUBCHEM_CACTVS_HBOND_ACCEPTOR>
2

> <PUBCHEM_CACTVS_HBOND_DONOR>
1

> <PUBCHEM_CACTVS_ROTATABLE_BOND>
0

> <PUBCHEM_CACTVS_SUBSKEYS>
AAADcYByMAAAEAAAAAAAAAAAAAAAAWAAAAAwAAAAAAAAAFgBAAAAHgBQAAABrAyBmAAwwILAAACIAqVSUACCAAAlAgQIiAGAZOgIIDrAlbGEIYhglADIy9cciICOAAAgEAACAAAAAEAgAAQAAAAAAAAAAA==

> <PUBCHEM_IUPAC_OPENEYE_NAME>
5-bromoindoline-2,3-dione

> <PUBCHEM_IUPAC_CAS_NAME>
5-bromo-1H-indole-2,3-dione

> <PUBCHEM_IUPAC_NAME>
5-bromo-1H-indole-2,3-dione

> <PUBCHEM_IUPAC_SYSTEMATIC_NAME>
5-bromanyl-1H-indole-2,3-dione

> <PUBCHEM_IUPAC_TRADITIONAL_NAME>
5-bromoisatin

> <PUBCHEM_IUPAC_INCHI>
InChI=1S/C8H4BrNO2/c9-4-1-2-6-5(3-4)7(11)8(12)10-6/h1-3H,(H,10,11,12)

> <PUBCHEM_IUPAC_INCHIKEY>
MBVCESWADCIXJN-UHFFFAOYSA-N

> <PUBCHEM_XLOGP3>
1.3

> <PUBCHEM_EXACT_MASS>
224.94254

> <PUBCHEM_MOLECULAR_FORMULA>
C8H4BrNO2

> <PUBCHEM_MOLECULAR_WEIGHT>
226.02686

> <PUBCHEM_OPENEYE_CAN_SMILES>
C1=CC2=C(C=C1Br)C(=O)C(=O)N2

> <PUBCHEM_OPENEYE_ISO_SMILES>
C1=CC2=C(C=C1Br)C(=O)C(=O)N2

> <PUBCHEM_CACTVS_TPSA>
46.2

> <PUBCHEM_MONOISOTOPIC_WEIGHT>
224.94254

> <PUBCHEM_TOTAL_CHARGE>
0

> <PUBCHEM_HEAVY_ATOM_COUNT>
12

> <PUBCHEM_ATOM_DEF_STEREO_COUNT>
0

> <PUBCHEM_ATOM_UDEF_STEREO_COUNT>
0

> <PUBCHEM_BOND_DEF_STEREO_COUNT>
0

> <PUBCHEM_BOND_UDEF_STEREO_COUNT>
0

> <PUBCHEM_ISOTOPIC_ATOM_COUNT>
0

> <PUBCHEM_COMPONENT_COUNT>
1

> <PUBCHEM_CACTVS_TAUTO_COUNT>
5

> <PUBCHEM_COORDINATE_TYPE>
1
5
255

> <PUBCHEM_BONDANNOTATIONS>
11  12  8
5  6  8
5  8  8
6  9  8
8  11  8
9  12  8

$$$$

