5552
  -OEChem-06261200442D

 83 82  0     1  0  0  0  0  0999 V2000
    9.4651   -2.0950    0.0000 O   0  0  0  0  0  0  0  0  0  0  0  0
   30.2497   -1.0950    0.0000 O   0  0  0  0  0  0  0  0  0  0  0  0
    2.5369    1.9050    0.0000 O   0  0  0  0  0  0  0  0  0  0  0  0
   24.1876    0.4050    0.0000 C   0  0  0  0  0  0  0  0  0  0  0  0
   23.3215   -0.0950    0.0000 C   0  0  0  0  0  0  0  0  0  0  0  0
   25.0536   -0.0950    0.0000 C   0  0  0  0  0  0  0  0  0  0  0  0
   12.9292   -1.0950    0.0000 C   0  0  0  0  0  0  0  0  0  0  0  0
   22.4555    0.4050    0.0000 C   0  0  0  0  0  0  0  0  0  0  0  0
   25.9196    0.4050    0.0000 C   0  0  0  0  0  0  0  0  0  0  0  0
   12.0632   -0.5950    0.0000 C   0  0  0  0  0  0  0  0  0  0  0  0
   13.7953   -0.5950    0.0000 C   0  0  0  0  0  0  0  0  0  0  0  0
   11.1972   -1.0950    0.0000 C   0  0  0  0  0  0  0  0  0  0  0  0
   14.6613   -1.0950    0.0000 C   0  0  0  0  0  0  0  0  0  0  0  0
   21.5895   -0.0950    0.0000 C   0  0  0  0  0  0  0  0  0  0  0  0
   26.7856   -0.0950    0.0000 C   0  0  0  0  0  0  0  0  0  0  0  0
   10.3312   -0.5950    0.0000 C   0  0  0  0  0  0  0  0  0  0  0  0
   15.5273   -0.5950    0.0000 C   0  0  0  0  0  0  0  0  0  0  0  0
   20.7235    0.4050    0.0000 C   0  0  0  0  0  0  0  0  0  0  0  0
   27.6517    0.4050    0.0000 C   0  0  0  0  0  0  0  0  0  0  0  0
    9.4651   -1.0950    0.0000 C   0  0  3  0  0  0  0  0  0  0  0  0
   16.3933   -1.0950    0.0000 C   0  0  0  0  0  0  0  0  0  0  0  0
   19.8574   -0.0950    0.0000 C   0  0  0  0  0  0  0  0  0  0  0  0
   28.5177   -0.0950    0.0000 C   0  0  0  0  0  0  0  0  0  0  0  0
   17.2594   -0.5950    0.0000 C   0  0  0  0  0  0  0  0  0  0  0  0
   18.9914    0.4050    0.0000 C   0  0  0  0  0  0  0  0  0  0  0  0
   29.3837    0.4050    0.0000 C   0  0  0  0  0  0  0  0  0  0  0  0
    8.5991   -0.5950    0.0000 C   0  0  0  0  0  0  0  0  0  0  0  0
   18.1254   -0.0950    0.0000 C   0  0  0  0  0  0  0  0  0  0  0  0
   30.2497   -0.0950    0.0000 C   0  0  3  0  0  0  0  0  0  0  0  0
    7.7331   -0.0950    0.0000 C   0  0  0  0  0  0  0  0  0  0  0  0
   31.1158    0.4050    0.0000 C   0  0  0  0  0  0  0  0  0  0  0  0
    6.8671    0.4050    0.0000 C   0  0  0  0  0  0  0  0  0  0  0  0
   31.9818    0.9050    0.0000 C   0  0  0  0  0  0  0  0  0  0  0  0
    6.0010    0.9050    0.0000 C   0  0  0  0  0  0  0  0  0  0  0  0
    5.1350    1.4050    0.0000 C   0  0  0  0  0  0  0  0  0  0  0  0
    4.2690    1.9050    0.0000 C   0  0  0  0  0  0  0  0  0  0  0  0
    3.4030    2.4050    0.0000 C   0  0  0  0  0  0  0  0  0  0  0  0
   24.5861    0.8799    0.0000 H   0  0  0  0  0  0  0  0  0  0  0  0
   23.7890    0.8799    0.0000 H   0  0  0  0  0  0  0  0  0  0  0  0
   24.6551   -0.5699    0.0000 H   0  0  0  0  0  0  0  0  0  0  0  0
   25.4521   -0.5699    0.0000 H   0  0  0  0  0  0  0  0  0  0  0  0
   22.9230   -0.5699    0.0000 H   0  0  0  0  0  0  0  0  0  0  0  0
   23.7201   -0.5699    0.0000 H   0  0  0  0  0  0  0  0  0  0  0  0
   12.5307   -1.5700    0.0000 H   0  0  0  0  0  0  0  0  0  0  0  0
   13.3278   -1.5700    0.0000 H   0  0  0  0  0  0  0  0  0  0  0  0
   22.8540    0.8799    0.0000 H   0  0  0  0  0  0  0  0  0  0  0  0
   22.0570    0.8799    0.0000 H   0  0  0  0  0  0  0  0  0  0  0  0
   26.3182    0.8799    0.0000 H   0  0  0  0  0  0  0  0  0  0  0  0
   25.5211    0.8799    0.0000 H   0  0  0  0  0  0  0  0  0  0  0  0
   12.4617   -0.1201    0.0000 H   0  0  0  0  0  0  0  0  0  0  0  0
   11.6647   -0.1201    0.0000 H   0  0  0  0  0  0  0  0  0  0  0  0
   14.1938   -0.1201    0.0000 H   0  0  0  0  0  0  0  0  0  0  0  0
   13.3967   -0.1201    0.0000 H   0  0  0  0  0  0  0  0  0  0  0  0
   10.7987   -1.5700    0.0000 H   0  0  0  0  0  0  0  0  0  0  0  0
   11.5957   -1.5700    0.0000 H   0  0  0  0  0  0  0  0  0  0  0  0
   14.2628   -1.5700    0.0000 H   0  0  0  0  0  0  0  0  0  0  0  0
   15.0598   -1.5700    0.0000 H   0  0  0  0  0  0  0  0  0  0  0  0
   21.1910   -0.5699    0.0000 H   0  0  0  0  0  0  0  0  0  0  0  0
   21.9880   -0.5699    0.0000 H   0  0  0  0  0  0  0  0  0  0  0  0
   26.3871   -0.5699    0.0000 H   0  0  0  0  0  0  0  0  0  0  0  0
   27.1842   -0.5699    0.0000 H   0  0  0  0  0  0  0  0  0  0  0  0
   10.7297   -0.1201    0.0000 H   0  0  0  0  0  0  0  0  0  0  0  0
    9.9326   -0.1201    0.0000 H   0  0  0  0  0  0  0  0  0  0  0  0
   15.9258   -0.1201    0.0000 H   0  0  0  0  0  0  0  0  0  0  0  0
   15.1288   -0.1201    0.0000 H   0  0  0  0  0  0  0  0  0  0  0  0
   21.1220    0.8799    0.0000 H   0  0  0  0  0  0  0  0  0  0  0  0
   20.3249    0.8799    0.0000 H   0  0  0  0  0  0  0  0  0  0  0  0
   28.0502    0.8799    0.0000 H   0  0  0  0  0  0  0  0  0  0  0  0
   27.2531    0.8799    0.0000 H   0  0  0  0  0  0  0  0  0  0  0  0
   10.2013   -1.5200    0.0000 H   0  0  0  0  0  0  0  0  0  0  0  0
   15.9948   -1.5700    0.0000 H   0  0  0  0  0  0  0  0  0  0  0  0
   16.7919   -1.5700    0.0000 H   0  0  0  0  0  0  0  0  0  0  0  0
   19.8574   -0.7150    0.0000 H   0  0  0  0  0  0  0  0  0  0  0  0
   28.5177   -0.7150    0.0000 H   0  0  0  0  0  0  0  0  0  0  0  0
   18.9914    1.0250    0.0000 H   0  0  0  0  0  0  0  0  0  0  0  0
   29.3837    1.0250    0.0000 H   0  0  0  0  0  0  0  0  0  0  0  0
    8.9282   -2.4050    0.0000 H   0  0  0  0  0  0  0  0  0  0  0  0
   29.5136   -0.5200    0.0000 H   0  0  0  0  0  0  0  0  0  0  0  0
   30.7867   -1.4050    0.0000 H   0  0  0  0  0  0  0  0  0  0  0  0
   32.5187    1.2150    0.0000 H   0  0  0  0  0  0  0  0  0  0  0  0
    3.8015    2.8800    0.0000 H   0  0  0  0  0  0  0  0  0  0  0  0
    3.0044    2.8800    0.0000 H   0  0  0  0  0  0  0  0  0  0  0  0
    2.0000    2.2150    0.0000 H   0  0  0  0  0  0  0  0  0  0  0  0
  1 20  1  0  0  0  0
  1 77  1  0  0  0  0
  2 29  1  0  0  0  0
  2 79  1  0  0  0  0
  3 37  1  0  0  0  0
  3 83  1  0  0  0  0
  4  5  1  0  0  0  0
  4  6  1  0  0  0  0
  4 38  1  0  0  0  0
  4 39  1  0  0  0  0
  5  8  1  0  0  0  0
  5 42  1  0  0  0  0
  5 43  1  0  0  0  0
  6  9  1  0  0  0  0
  6 40  1  0  0  0  0
  6 41  1  0  0  0  0
  7 10  1  0  0  0  0
  7 11  1  0  0  0  0
  7 44  1  0  0  0  0
  7 45  1  0  0  0  0
  8 14  1  0  0  0  0
  8 46  1  0  0  0  0
  8 47  1  0  0  0  0
  9 15  1  0  0  0  0
  9 48  1  0  0  0  0
  9 49  1  0  0  0  0
 10 12  1  0  0  0  0
 10 50  1  0  0  0  0
 10 51  1  0  0  0  0
 11 13  1  0  0  0  0
 11 52  1  0  0  0  0
 11 53  1  0  0  0  0
 12 16  1  0  0  0  0
 12 54  1  0  0  0  0
 12 55  1  0  0  0  0
 13 17  1  0  0  0  0
 13 56  1  0  0  0  0
 13 57  1  0  0  0  0
 14 18  1  0  0  0  0
 14 58  1  0  0  0  0
 14 59  1  0  0  0  0
 15 19  1  0  0  0  0
 15 60  1  0  0  0  0
 15 61  1  0  0  0  0
 16 20  1  0  0  0  0
 16 62  1  0  0  0  0
 16 63  1  0  0  0  0
 17 21  1  0  0  0  0
 17 64  1  0  0  0  0
 17 65  1  0  0  0  0
 18 22  1  0  0  0  0
 18 66  1  0  0  0  0
 18 67  1  0  0  0  0
 19 23  1  0  0  0  0
 19 68  1  0  0  0  0
 19 69  1  0  0  0  0
 20 27  1  0  0  0  0
 20 70  1  0  0  0  0
 21 24  1  0  0  0  0
 21 71  1  0  0  0  0
 21 72  1  0  0  0  0
 22 25  2  3  0  0  0
 22 73  1  0  0  0  0
 23 26  2  3  0  0  0
 23 74  1  0  0  0  0
 24 28  3  0  0  0  0
 25 28  1  0  0  0  0
 25 75  1  0  0  0  0
 26 29  1  0  0  0  0
 26 76  1  0  0  0  0
 27 30  3  0  0  0  0
 29 31  1  0  0  0  0
 29 78  1  0  0  0  0
 30 32  1  0  0  0  0
 31 33  3  0  0  0  0
 32 34  3  0  0  0  0
 33 80  1  0  0  0  0
 34 35  1  0  0  0  0
 35 36  3  0  0  0  0
 36 37  1  0  0  0  0
 37 81  1  0  0  0  0
 37 82  1  0  0  0  0
M  END
> <PUBCHEM_COMPOUND_CID>
5552

> <PUBCHEM_COMPOUND_CANONICALIZED>
1

> <PUBCHEM_CACTVS_COMPLEXITY>
951

> <PUBCHEM_CACTVS_HBOND_ACCEPTOR>
3

> <PUBCHEM_CACTVS_HBOND_DONOR>
3

> <PUBCHEM_CACTVS_ROTATABLE_BOND>
21

> <PUBCHEM_CACTVS_SUBSKEYS>
AAADcfB8MAAAAAAAAAAAAAAAAAAAAAAAAAAAAAAAAAAAAAAAAAAAGgAACAAACBSggAIAAAAAAgDAGCBCAAgAAAAgAAAICAAAAAgAFAIAAQAAUAAEgAAIEAOAwKAAAAAAAAAAAAAAAAAAAAAAAAAAAAAAAA==

> <PUBCHEM_IUPAC_OPENEYE_NAME>
tetratriaconta-19,30-dien-2,4,6,17,33-pentayne-1,8,32-triol

> <PUBCHEM_IUPAC_CAS_NAME>
tetratriaconta-19,30-dien-2,4,6,17,33-pentayne-1,8,32-triol

> <PUBCHEM_IUPAC_NAME>
tetratriaconta-19,30-dien-2,4,6,17,33-pentayne-1,8,32-triol

> <PUBCHEM_IUPAC_SYSTEMATIC_NAME>
tetratriaconta-19,30-dien-2,4,6,17,33-pentayne-1,8,32-triol

> <PUBCHEM_IUPAC_TRADITIONAL_NAME>
tetratriaconta-19,30-dien-2,4,6,17,33-pentayne-1,8,32-triol

> <PUBCHEM_IUPAC_INCHI>
InChI=1S/C34H46O3/c1-2-33(36)29-25-21-18-16-14-12-10-8-6-4-3-5-7-9-11-13-15-17-19-22-26-30-34(37)31-27-23-20-24-28-32-35/h1,3,5,25,29,33-37H,4,6,8,10-19,21-22,26,30,32H2

> <PUBCHEM_IUPAC_INCHIKEY>
JCNUILFNAPAXSL-UHFFFAOYSA-N

> <PUBCHEM_XLOGP3_AA>
9

> <PUBCHEM_EXACT_MASS>
502.344695

> <PUBCHEM_MOLECULAR_FORMULA>
C34H46O3

> <PUBCHEM_MOLECULAR_WEIGHT>
502.72724

> <PUBCHEM_OPENEYE_CAN_SMILES>
C#CC(C=CCCCCCCCCCC=CC#CCCCCCCCCC(C#CC#CC#CCO)O)O

> <PUBCHEM_OPENEYE_ISO_SMILES>
C#CC(C=CCCCCCCCCCC=CC#CCCCCCCCCC(C#CC#CC#CCO)O)O

> <PUBCHEM_CACTVS_TPSA>
60.7

> <PUBCHEM_MONOISOTOPIC_WEIGHT>
502.344695

> <PUBCHEM_TOTAL_CHARGE>
0

> <PUBCHEM_HEAVY_ATOM_COUNT>
37

> <PUBCHEM_ATOM_DEF_STEREO_COUNT>
0

> <PUBCHEM_ATOM_UDEF_STEREO_COUNT>
2

> <PUBCHEM_BOND_DEF_STEREO_COUNT>
0

> <PUBCHEM_BOND_UDEF_STEREO_COUNT>
2

> <PUBCHEM_ISOTOPIC_ATOM_COUNT>
0

> <PUBCHEM_COMPONENT_COUNT>
1

> <PUBCHEM_CACTVS_TAUTO_COUNT>
1

> <PUBCHEM_COORDINATE_TYPE>
1
5
255

> <PUBCHEM_BONDANNOTATIONS>
20  70  3
22  25  1
23  26  1
29  78  3

$$$$

