8444
  -OEChem-06261202503D

 20 20  0     0  0  0  0  0  0999 V2000
    0.4818   -2.4267    0.3033 Cl  0  0  0  0  0  0  0  0  0  0  0  0
   -4.2635   -0.0135   -0.5195 Cl  0  0  0  0  0  0  0  0  0  0  0  0
    1.4757    0.3864    0.6652 O   0  0  0  0  0  0  0  0  0  0  0  0
    3.6639   -0.7760   -0.6026 O   0  0  0  0  0  0  0  0  0  0  0  0
    0.1456    0.2708    0.3891 C   0  0  0  0  0  0  0  0  0  0  0  0
    2.2651    1.1356   -0.2560 C   0  0  0  0  0  0  0  0  0  0  0  0
    3.6838    0.5998   -0.2419 C   0  0  0  0  0  0  0  0  0  0  0  0
   -0.4475   -0.9771    0.1976 C   0  0  0  0  0  0  0  0  0  0  0  0
   -0.6246    1.4303    0.3001 C   0  0  0  0  0  0  0  0  0  0  0  0
   -1.8111   -1.0655   -0.0829 C   0  0  0  0  0  0  0  0  0  0  0  0
   -1.9880    1.3419    0.0196 C   0  0  0  0  0  0  0  0  0  0  0  0
   -2.5813    0.0940   -0.1720 C   0  0  0  0  0  0  0  0  0  0  0  0
    1.8551    1.0390   -1.2697 H   0  0  0  0  0  0  0  0  0  0  0  0
    2.2595    2.1910    0.0361 H   0  0  0  0  0  0  0  0  0  0  0  0
    4.1248    0.6763    0.7569 H   0  0  0  0  0  0  0  0  0  0  0  0
    4.3158    1.1393   -0.9526 H   0  0  0  0  0  0  0  0  0  0  0  0
   -0.1798    2.4093    0.4560 H   0  0  0  0  0  0  0  0  0  0  0  0
   -2.2750   -2.0382   -0.2327 H   0  0  0  0  0  0  0  0  0  0  0  0
   -2.5763    2.2537   -0.0449 H   0  0  0  0  0  0  0  0  0  0  0  0
    3.0878   -1.2362    0.0315 H   0  0  0  0  0  0  0  0  0  0  0  0
  1  8  1  0  0  0  0
  2 12  1  0  0  0  0
  3  5  1  0  0  0  0
  3  6  1  0  0  0  0
  4  7  1  0  0  0  0
  4 20  1  0  0  0  0
  5  8  2  0  0  0  0
  5  9  1  0  0  0  0
  6  7  1  0  0  0  0
  6 13  1  0  0  0  0
  6 14  1  0  0  0  0
  7 15  1  0  0  0  0
  7 16  1  0  0  0  0
  8 10  1  0  0  0  0
  9 11  2  0  0  0  0
  9 17  1  0  0  0  0
 10 12  2  0  0  0  0
 10 18  1  0  0  0  0
 11 12  1  0  0  0  0
 11 19  1  0  0  0  0
M  END
> <PUBCHEM_COMPOUND_CID>
8444

> <PUBCHEM_CONFORMER_RMSD>
0.6

> <PUBCHEM_CONFORMER_DIVERSEORDER>
1
11
13
8
12
7
14
5
9
2
15
4
10
3
6

> <PUBCHEM_MMFF94_PARTIAL_CHARGES>
16
1 -0.18
10 -0.15
11 -0.15
12 0.18
17 0.15
18 0.15
19 0.15
2 -0.18
20 0.4
3 -0.36
4 -0.68
5 0.08
6 0.28
7 0.28
8 0.18
9 -0.15

> <PUBCHEM_EFFECTIVE_ROTOR_COUNT>
3

> <PUBCHEM_PHARMACOPHORE_FEATURES>
4
1 3 acceptor
1 4 acceptor
1 4 donor
6 5 8 9 10 11 12 rings

> <PUBCHEM_HEAVY_ATOM_COUNT>
12

> <PUBCHEM_ATOM_DEF_STEREO_COUNT>
0

> <PUBCHEM_ATOM_UDEF_STEREO_COUNT>
0

> <PUBCHEM_BOND_DEF_STEREO_COUNT>
0

> <PUBCHEM_BOND_UDEF_STEREO_COUNT>
0

> <PUBCHEM_ISOTOPIC_ATOM_COUNT>
0

> <PUBCHEM_COMPONENT_COUNT>
1

> <PUBCHEM_CACTVS_TAUTO_COUNT>
1

> <PUBCHEM_CONFORMER_ID>
000020FC00000001

> <PUBCHEM_MMFF94_ENERGY>
31.7497

> <PUBCHEM_FEATURE_SELFOVERLAP>
20.301

> <PUBCHEM_SHAPE_FINGERPRINT>
12032990 46 18337387137322662067
12716758 59 18337674105309252464
13380535 76 18341896302858707971
14325111 11 18410572894509612168
14911166 2 18410018702242323501
14993402 34 18131351890602323388
15775835 57 17846781793254989020
16945 1 18337968830523880241
18186145 218 18412548699513853532
19021347 11 18341051925173118706
193761 8 17906455781060736033
20201158 50 18113611283821257518
20645476 183 17703508783746664114
20645477 56 18269838618895569936
20653085 51 17632008646261803380
21293036 1 18411984637327348325
21501502 16 18194124251109918913
23235685 24 18342465824354399273
23402539 116 18335430036315530252
23402655 69 18265635315582710725
23463225 33 18271250537922789106
23552423 10 18124602130822579291
23559900 14 18261956237811908128
2748010 2 17979085881628411145
3071541 37 18271812371058197103
366044 4 18341615888643694531
369184 2 8790614684158747304
4990 188 18040996241609083567
528886 8 18411989031052317131
69090 78 18040720238167643270

> <PUBCHEM_SHAPE_MULTIPOLES>
238.96
6.13
1.87
0.73
0.97
0.95
0
-0.87
1.75
0.27
-0.16
0.03
0
-0.02

> <PUBCHEM_SHAPE_SELFOVERLAP>
470.552

> <PUBCHEM_SHAPE_VOLUME>
145

> <PUBCHEM_COORDINATE_TYPE>
2
5
10

$$$$

