17396239
  -OEChem-06241222553D

 35 37  0     0  0  0  0  0  0999 V2000
    2.3853   -1.9252    0.3670 S   0  0  0  0  0  0  0  0  0  0  0  0
    3.0270    0.5884    1.8521 F   0  0  0  0  0  0  0  0  0  0  0  0
    2.7781    3.1436    0.9404 F   0  0  0  0  0  0  0  0  0  0  0  0
    1.8558    3.6146   -1.5900 F   0  0  0  0  0  0  0  0  0  0  0  0
    3.3846   -1.9085    1.4190 O   0  0  0  0  0  0  0  0  0  0  0  0
    2.5687   -2.7840   -0.7872 O   0  0  0  0  0  0  0  0  0  0  0  0
    0.8387   -2.2027    1.0703 N   0  0  0  0  0  0  0  0  0  0  0  0
   -3.2341    0.3123    0.1274 N   0  0  0  0  0  0  0  0  0  0  0  0
   -3.4409    0.7337    1.3828 N   0  0  0  0  0  0  0  0  0  0  0  0
   -4.7116    1.8911   -0.0370 N   0  0  0  0  0  0  0  0  0  0  0  0
   -4.3451    1.6997    1.2760 N   0  0  0  0  0  0  0  0  0  0  0  0
   -0.3291   -1.9569    0.2821 C   0  0  0  0  0  0  0  0  0  0  0  0
   -1.2110   -0.9261    0.6073 C   0  0  0  0  0  0  0  0  0  0  0  0
   -2.3438   -0.7044   -0.1760 C   0  0  0  0  0  0  0  0  0  0  0  0
    2.2278   -0.2617   -0.2168 C   0  0  0  0  0  0  0  0  0  0  0  0
   -0.5803   -2.7658   -0.8262 C   0  0  0  0  0  0  0  0  0  0  0  0
   -2.5949   -1.5133   -1.2841 C   0  0  0  0  0  0  0  0  0  0  0  0
   -0.9356   -0.0616    1.7994 C   0  0  0  0  0  0  0  0  0  0  0  0
   -1.7132   -2.5440   -1.6093 C   0  0  0  0  0  0  0  0  0  0  0  0
    2.5731    0.8071    0.6102 C   0  0  0  0  0  0  0  0  0  0  0  0
    1.7571   -0.0212   -1.5077 C   0  0  0  0  0  0  0  0  0  0  0  0
    2.4473    2.1167    0.1464 C   0  0  0  0  0  0  0  0  0  0  0  0
    1.6313    1.2882   -1.9714 C   0  0  0  0  0  0  0  0  0  0  0  0
    1.9764    2.3572   -1.1444 C   0  0  0  0  0  0  0  0  0  0  0  0
   -4.0118    1.0227   -0.7303 C   0  0  0  0  0  0  0  0  0  0  0  0
    0.7484   -2.0720    2.0848 H   0  0  0  0  0  0  0  0  0  0  0  0
    0.0822   -3.5866   -1.0859 H   0  0  0  0  0  0  0  0  0  0  0  0
   -3.4756   -1.3809   -1.9072 H   0  0  0  0  0  0  0  0  0  0  0  0
    0.0936   -0.1411    2.1606 H   0  0  0  0  0  0  0  0  0  0  0  0
   -1.0326    1.0029    1.5585 H   0  0  0  0  0  0  0  0  0  0  0  0
   -1.5751   -0.3404    2.6431 H   0  0  0  0  0  0  0  0  0  0  0  0
   -1.9124   -3.1790   -2.4675 H   0  0  0  0  0  0  0  0  0  0  0  0
    1.4845   -0.8368   -2.1709 H   0  0  0  0  0  0  0  0  0  0  0  0
    1.2648    1.4760   -2.9762 H   0  0  0  0  0  0  0  0  0  0  0  0
   -4.0350    0.8994   -1.8039 H   0  0  0  0  0  0  0  0  0  0  0  0
  1  5  2  0  0  0  0
  1  6  2  0  0  0  0
  1  7  1  0  0  0  0
  1 15  1  0  0  0  0
  2 20  1  0  0  0  0
  3 22  1  0  0  0  0
  4 24  1  0  0  0  0
  7 12  1  0  0  0  0
  7 26  1  0  0  0  0
  8  9  1  0  0  0  0
  8 14  1  0  0  0  0
  8 25  1  0  0  0  0
  9 11  2  0  0  0  0
 10 11  1  0  0  0  0
 10 25  2  0  0  0  0
 12 13  2  0  0  0  0
 12 16  1  0  0  0  0
 13 14  1  0  0  0  0
 13 18  1  0  0  0  0
 14 17  2  0  0  0  0
 15 20  2  0  0  0  0
 15 21  1  0  0  0  0
 16 19  2  0  0  0  0
 16 27  1  0  0  0  0
 17 19  1  0  0  0  0
 17 28  1  0  0  0  0
 18 29  1  0  0  0  0
 18 30  1  0  0  0  0
 18 31  1  0  0  0  0
 19 32  1  0  0  0  0
 20 22  1  0  0  0  0
 21 23  2  0  0  0  0
 21 33  1  0  0  0  0
 22 24  2  0  0  0  0
 23 24  1  0  0  0  0
 23 34  1  0  0  0  0
 25 35  1  0  0  0  0
M  END
> <PUBCHEM_COMPOUND_CID>
17396239

> <PUBCHEM_CONFORMER_RMSD>
0.8

> <PUBCHEM_CONFORMER_DIVERSEORDER>
1
34
64
59
65
67
50
70
61
25
9
57
56
58
7
36
46
28
72
17
16
69
14
38
40
68
47
31
55
22
3
71
19
2
60
48
51
6
11
49
32
66
42
5
24
45
43
52
63
62
39
29
35
26
30
53
18
4
44
12
54
15
41
10
37
27
23
21
20
13
8
33

> <PUBCHEM_MMFF94_PARTIAL_CHARGES>
31
1 1.45
10 -0.34
12 0.2
13 -0.14
14 -0.02
15 -0.01
16 -0.15
17 -0.15
18 0.14
19 -0.15
2 -0.19
20 0.19
21 -0.15
22 0.19
23 -0.15
24 0.19
25 0.04
26 0.42
27 0.15
28 0.15
3 -0.19
32 0.15
33 0.15
34 0.15
35 0.15
4 -0.19
5 -0.65
6 -0.65
7 -0.76
8 0.59
9 -0.42

> <PUBCHEM_EFFECTIVE_ROTOR_COUNT>
4

> <PUBCHEM_PHARMACOPHORE_FEATURES>
7
1 5 acceptor
1 6 acceptor
1 7 donor
3 8 10 25 cation
5 8 9 10 11 25 rings
6 12 13 14 16 17 19 rings
6 15 20 21 22 23 24 rings

> <PUBCHEM_HEAVY_ATOM_COUNT>
25

> <PUBCHEM_ATOM_DEF_STEREO_COUNT>
0

> <PUBCHEM_ATOM_UDEF_STEREO_COUNT>
0

> <PUBCHEM_BOND_DEF_STEREO_COUNT>
0

> <PUBCHEM_BOND_UDEF_STEREO_COUNT>
0

> <PUBCHEM_ISOTOPIC_ATOM_COUNT>
0

> <PUBCHEM_COMPONENT_COUNT>
1

> <PUBCHEM_CACTVS_TAUTO_COUNT>
1

> <PUBCHEM_CONFORMER_ID>
0109720F00000001

> <PUBCHEM_MMFF94_ENERGY>
62.2163

> <PUBCHEM_FEATURE_SELFOVERLAP>
35.539

> <PUBCHEM_SHAPE_FINGERPRINT>
10382601 240 17917715678141161560
104564 63 17622158388156053542
11640471 11 18268150859581959188
11725454 13 16375237023514582616
12633257 1 18269017356887284328
128993 33 18123160455955504333
13134695 92 18127693957187660318
13583140 156 17988077915607344619
13965767 371 18048338891607080106
14713325 29 16189686718397486198
14955137 171 18193542583278260051
15238133 3 17415832750365275742
1601671 61 18050000300942297343
17980427 23 18042713678814296218
18186145 218 18113606915802567995
18981168 100 17985527984342807306
20567600 299 17975703002130650509
21475661 188 17560246954602525165
21864079 5 18198615536739316053
22749437 52 18338244756213005357
23557571 272 17386010511712037587
23558518 356 18341336587216672835
23559900 14 17240773929820354994
469060 322 17694486058591200699
474 4 18343025488657936723
49207404 50 17916000427037697979
5048184 11 18338230453903688693
5895379 119 17604140553345706840
7832392 63 18409452500629738222
9981440 41 18048892788075325274

> <PUBCHEM_SHAPE_MULTIPOLES>
459.87
6.97
3.78
1.79
5.97
0.63
0.07
4.1
-1.15
-1.82
0.9
-0.38
0.23
-1.5

> <PUBCHEM_SHAPE_SELFOVERLAP>
995.833

> <PUBCHEM_SHAPE_VOLUME>
254.7

> <PUBCHEM_COORDINATE_TYPE>
2
5
10

$$$$

