9302
  -OEChem-06261203352D

 20 20  0     0  0  0  0  0  0999 V2000
    2.0000   -1.1550    0.0000 O   0  0  0  0  0  0  0  0  0  0  0  0
    6.3301    0.3450    0.0000 O   0  0  0  0  0  0  0  0  0  0  0  0
    3.7320   -1.1550    0.0000 N   0  0  0  0  0  0  0  0  0  0  0  0
    4.5981   -0.6550    0.0000 N   0  0  0  0  0  0  0  0  0  0  0  0
    5.4641    1.8450    0.0000 N   0  0  0  0  0  0  0  0  0  0  0  0
    3.7320    0.8450    0.0000 C   0  0  0  0  0  0  0  0  0  0  0  0
    2.8660    0.3450    0.0000 C   0  0  0  0  0  0  0  0  0  0  0  0
    4.5981    0.3450    0.0000 C   0  0  0  0  0  0  0  0  0  0  0  0
    2.8660   -0.6550    0.0000 C   0  0  0  0  0  0  0  0  0  0  0  0
    3.7320   -2.1550    0.0000 C   0  0  0  0  0  0  0  0  0  0  0  0
    5.4641    0.8450    0.0000 C   0  0  0  0  0  0  0  0  0  0  0  0
    4.1306    1.3200    0.0000 H   0  0  0  0  0  0  0  0  0  0  0  0
    3.3335    1.3200    0.0000 H   0  0  0  0  0  0  0  0  0  0  0  0
    2.6540    0.9276    0.0000 H   0  0  0  0  0  0  0  0  0  0  0  0
    2.2554    0.2373    0.0000 H   0  0  0  0  0  0  0  0  0  0  0  0
    3.1120   -2.1550    0.0000 H   0  0  0  0  0  0  0  0  0  0  0  0
    3.7320   -2.7750    0.0000 H   0  0  0  0  0  0  0  0  0  0  0  0
    4.3520   -2.1550    0.0000 H   0  0  0  0  0  0  0  0  0  0  0  0
    6.0010    2.1550    0.0000 H   0  0  0  0  0  0  0  0  0  0  0  0
    4.9272    2.1550    0.0000 H   0  0  0  0  0  0  0  0  0  0  0  0
  1  9  2  0  0  0  0
  2 11  2  0  0  0  0
  3  4  1  0  0  0  0
  3  9  1  0  0  0  0
  3 10  1  0  0  0  0
  4  8  2  0  0  0  0
  5 11  1  0  0  0  0
  5 19  1  0  0  0  0
  5 20  1  0  0  0  0
  6  7  1  0  0  0  0
  6  8  1  0  0  0  0
  6 12  1  0  0  0  0
  6 13  1  0  0  0  0
  7  9  1  0  0  0  0
  7 14  1  0  0  0  0
  7 15  1  0  0  0  0
  8 11  1  0  0  0  0
 10 16  1  0  0  0  0
 10 17  1  0  0  0  0
 10 18  1  0  0  0  0
M  END
> <PUBCHEM_COMPOUND_CID>
9302

> <PUBCHEM_COMPOUND_CANONICALIZED>
1

> <PUBCHEM_CACTVS_COMPLEXITY>
234

> <PUBCHEM_CACTVS_HBOND_ACCEPTOR>
3

> <PUBCHEM_CACTVS_HBOND_DONOR>
1

> <PUBCHEM_CACTVS_ROTATABLE_BOND>
1

> <PUBCHEM_CACTVS_SUBSKEYS>
AAADccBjMAAAAAAAAAAAAAAAAAAAAAAAAAAgAAAAAAAAAAAAAAAAHgAYAAAACAiBgAQCAAJAAAAoAQEwEAAQAAAAAAASAAE4AAAAABIAgAAEAAAACgAAAAAYAwAAAAAAAAAAAAAAAAAAAAAAAAAAAAAAAA==

> <PUBCHEM_IUPAC_OPENEYE_NAME>
1-methyl-6-oxo-4,5-dihydropyridazine-3-carboxamide

> <PUBCHEM_IUPAC_CAS_NAME>
1-methyl-6-oxo-4,5-dihydropyridazine-3-carboxamide

> <PUBCHEM_IUPAC_NAME>
1-methyl-6-oxo-4,5-dihydropyridazine-3-carboxamide

> <PUBCHEM_IUPAC_SYSTEMATIC_NAME>
1-methyl-6-oxidanylidene-4,5-dihydropyridazine-3-carboxamide

> <PUBCHEM_IUPAC_TRADITIONAL_NAME>
6-keto-1-methyl-4,5-dihydropyridazine-3-carboxamide

> <PUBCHEM_IUPAC_INCHI>
InChI=1S/C6H9N3O2/c1-9-5(10)3-2-4(8-9)6(7)11/h2-3H2,1H3,(H2,7,11)

> <PUBCHEM_IUPAC_INCHIKEY>
LXFKHPXXAPOYCC-UHFFFAOYSA-N

> <PUBCHEM_XLOGP3_AA>
-1.6

> <PUBCHEM_EXACT_MASS>
155.069477

> <PUBCHEM_MOLECULAR_FORMULA>
C6H9N3O2

> <PUBCHEM_MOLECULAR_WEIGHT>
155.15456

> <PUBCHEM_OPENEYE_CAN_SMILES>
CN1C(=O)CCC(=N1)C(=O)N

> <PUBCHEM_OPENEYE_ISO_SMILES>
CN1C(=O)CCC(=N1)C(=O)N

> <PUBCHEM_CACTVS_TPSA>
75.8

> <PUBCHEM_MONOISOTOPIC_WEIGHT>
155.069477

> <PUBCHEM_TOTAL_CHARGE>
0

> <PUBCHEM_HEAVY_ATOM_COUNT>
11

> <PUBCHEM_ATOM_DEF_STEREO_COUNT>
0

> <PUBCHEM_ATOM_UDEF_STEREO_COUNT>
0

> <PUBCHEM_BOND_DEF_STEREO_COUNT>
0

> <PUBCHEM_BOND_UDEF_STEREO_COUNT>
0

> <PUBCHEM_ISOTOPIC_ATOM_COUNT>
0

> <PUBCHEM_COMPONENT_COUNT>
1

> <PUBCHEM_CACTVS_TAUTO_COUNT>
4

> <PUBCHEM_COORDINATE_TYPE>
1
5
255

$$$$

