9776
  -OEChem-06261204033D

 15 14  0     0  0  0  0  0  0999 V2000
   -0.7992   -1.6916    0.5553 F   0  0  0  0  0  0  0  0  0  0  0  0
   -0.4998   -1.0030   -1.4887 F   0  0  0  0  0  0  0  0  0  0  0  0
    1.1067   -0.0309    1.4871 F   0  0  0  0  0  0  0  0  0  0  0  0
    1.7701   -1.3819   -0.0878 F   0  0  0  0  0  0  0  0  0  0  0  0
   -1.1301    1.5725   -0.6952 F   0  0  0  0  0  0  0  0  0  0  0  0
   -2.6812    0.0909   -0.3010 F   0  0  0  0  0  0  0  0  0  0  0  0
   -1.4686    0.8717    1.3373 F   0  0  0  0  0  0  0  0  0  0  0  0
    2.9541    1.0880   -0.2066 O   0  0  0  0  0  0  0  0  0  0  0  0
   -0.4290   -0.6133   -0.1895 C   0  0  0  0  0  0  0  0  0  0  0  0
    1.0114   -0.2777    0.1549 C   0  0  0  0  0  0  0  0  0  0  0  0
   -1.4373    0.4843    0.0460 C   0  0  0  0  0  0  0  0  0  0  0  0
    1.6029    0.8909   -0.6118 C   0  0  0  0  0  0  0  0  0  0  0  0
    1.5924    0.7124   -1.6910 H   0  0  0  0  0  0  0  0  0  0  0  0
    1.0823    1.8251   -0.3934 H   0  0  0  0  0  0  0  0  0  0  0  0
    3.4332    0.2597   -0.3807 H   0  0  0  0  0  0  0  0  0  0  0  0
  1  9  1  0  0  0  0
  2  9  1  0  0  0  0
  3 10  1  0  0  0  0
  4 10  1  0  0  0  0
  5 11  1  0  0  0  0
  6 11  1  0  0  0  0
  7 11  1  0  0  0  0
  8 12  1  0  0  0  0
  8 15  1  0  0  0  0
  9 10  1  0  0  0  0
  9 11  1  0  0  0  0
 10 12  1  0  0  0  0
 12 13  1  0  0  0  0
 12 14  1  0  0  0  0
M  END
> <PUBCHEM_COMPOUND_CID>
9776

> <PUBCHEM_CONFORMER_RMSD>
0.6

> <PUBCHEM_CONFORMER_DIVERSEORDER>
1
2
3

> <PUBCHEM_MMFF94_PARTIAL_CHARGES>
13
1 -0.34
10 0.68
11 1.02
12 0.28
15 0.4
2 -0.34
3 -0.34
4 -0.34
5 -0.34
6 -0.34
7 -0.34
8 -0.68
9 0.68

> <PUBCHEM_EFFECTIVE_ROTOR_COUNT>
3

> <PUBCHEM_PHARMACOPHORE_FEATURES>
2
1 8 acceptor
1 8 donor

> <PUBCHEM_HEAVY_ATOM_COUNT>
12

> <PUBCHEM_ATOM_DEF_STEREO_COUNT>
0

> <PUBCHEM_ATOM_UDEF_STEREO_COUNT>
0

> <PUBCHEM_BOND_DEF_STEREO_COUNT>
0

> <PUBCHEM_BOND_UDEF_STEREO_COUNT>
0

> <PUBCHEM_ISOTOPIC_ATOM_COUNT>
0

> <PUBCHEM_COMPONENT_COUNT>
1

> <PUBCHEM_CACTVS_TAUTO_COUNT>
1

> <PUBCHEM_CONFORMER_ID>
0000263000000001

> <PUBCHEM_MMFF94_ENERGY>
5.7649

> <PUBCHEM_FEATURE_SELFOVERLAP>
10.148

> <PUBCHEM_SHAPE_FINGERPRINT>
12423570 1 14608143557321748575
13024252 1 16558192570946122932
137420 1 9425856852838592367
16945 1 18270946969233452548
19837323 101 17460005492503605952
20653085 51 18118657995043398780
21040471 1 18113345227312928571
21922407 69 17631749183018514474
23235685 24 18334294257983958449
23552423 10 18337394962357741879
24536 1 18270136642206899954
29004967 10 14477239370709850293
369184 2 14548750443144653348
5084963 1 18263088879978297547

> <PUBCHEM_SHAPE_MULTIPOLES>
190.17
2.95
1.41
1.08
0.77
0.15
-0.13
-0.9
0.08
0.05
0.11
-0.12
0.03
-0.15

> <PUBCHEM_SHAPE_SELFOVERLAP>
386.965

> <PUBCHEM_SHAPE_VOLUME>
110.5

> <PUBCHEM_COORDINATE_TYPE>
2
5
10

$$$$

