12280
  -OEChem-06261206453D

 13 13  0     0  0  0  0  0  0999 V2000
    2.8449   -1.5838    0.0002 Br  0  0  0  0  0  0  0  0  0  0  0  0
   -2.8456   -1.5826   -0.0003 Br  0  0  0  0  0  0  0  0  0  0  0  0
    0.0009    2.8144   -0.0004 O   0  0  0  0  0  0  0  0  0  0  0  0
    0.0003    1.4536    0.0003 C   0  0  0  0  0  0  0  0  0  0  0  0
   -1.2078    0.7565    0.0005 C   0  0  0  0  0  0  0  0  0  0  0  0
    1.2081    0.7558   -0.0001 C   0  0  0  0  0  0  0  0  0  0  0  0
    1.2078   -0.6391   -0.0003 C   0  0  0  0  0  0  0  0  0  0  0  0
   -1.2082   -0.6384    0.0003 C   0  0  0  0  0  0  0  0  0  0  0  0
   -0.0004   -1.3363   -0.0001 C   0  0  0  0  0  0  0  0  0  0  0  0
   -2.1477    1.3037    0.0005 H   0  0  0  0  0  0  0  0  0  0  0  0
    2.1445    1.3088   -0.0004 H   0  0  0  0  0  0  0  0  0  0  0  0
   -0.0007   -2.4242   -0.0002 H   0  0  0  0  0  0  0  0  0  0  0  0
   -0.9188    3.1307   -0.0002 H   0  0  0  0  0  0  0  0  0  0  0  0
  1  7  1  0  0  0  0
  2  8  1  0  0  0  0
  3  4  1  0  0  0  0
  3 13  1  0  0  0  0
  4  5  2  0  0  0  0
  4  6  1  0  0  0  0
  5  8  1  0  0  0  0
  5 10  1  0  0  0  0
  6  7  2  0  0  0  0
  6 11  1  0  0  0  0
  7  9  1  0  0  0  0
  8  9  2  0  0  0  0
  9 12  1  0  0  0  0
M  END
> <PUBCHEM_COMPOUND_CID>
12280

> <PUBCHEM_CONFORMER_RMSD>
0.4

> <PUBCHEM_CONFORMER_DIVERSEORDER>
1

> <PUBCHEM_MMFF94_PARTIAL_CHARGES>
13
1 -0.11
10 0.15
11 0.15
12 0.15
13 0.45
2 -0.11
3 -0.53
4 0.08
5 -0.15
6 -0.15
7 0.11
8 0.11
9 -0.15

> <PUBCHEM_EFFECTIVE_ROTOR_COUNT>
0

> <PUBCHEM_PHARMACOPHORE_FEATURES>
4
1 1 hydrophobe
1 2 hydrophobe
1 3 donor
6 4 5 6 7 8 9 rings

> <PUBCHEM_HEAVY_ATOM_COUNT>
9

> <PUBCHEM_ATOM_DEF_STEREO_COUNT>
0

> <PUBCHEM_ATOM_UDEF_STEREO_COUNT>
0

> <PUBCHEM_BOND_DEF_STEREO_COUNT>
0

> <PUBCHEM_BOND_UDEF_STEREO_COUNT>
0

> <PUBCHEM_ISOTOPIC_ATOM_COUNT>
0

> <PUBCHEM_COMPONENT_COUNT>
1

> <PUBCHEM_CACTVS_TAUTO_COUNT>
2

> <PUBCHEM_CONFORMER_ID>
00002FF800000001

> <PUBCHEM_MMFF94_ENERGY>
17.2228

> <PUBCHEM_FEATURE_SELFOVERLAP>
20.297

> <PUBCHEM_SHAPE_FINGERPRINT>
1 1 17762339111062680303
12423570 1 11486566059626993435
12716758 59 17687182402074328614
16945 1 18122624946695856071
193761 8 18410856563935218084
20645477 70 18051422769038021255
20871998 184 18115874168692728966
20871998 22 18335413573695737638
21040471 1 17474108077939208066
23552423 10 18272927258748033622
23552449 1 18338238296434511958
241688 4 18410855494487926554
2748010 2 18409739460131492582
29004967 10 18268711606438950707

> <PUBCHEM_SHAPE_MULTIPOLES>
191.23
3.51
2.54
0.64
0
1.57
0
-3.06
0
0
0
0
-0.07
0

> <PUBCHEM_SHAPE_SELFOVERLAP>
368.585

> <PUBCHEM_SHAPE_VOLUME>
121.9

> <PUBCHEM_COORDINATE_TYPE>
2
5
10

$$$$

