5966
  -OEChem-06261201012D

 92 93  0     0  0  0  0  0  0999 V2000
    4.7320   -5.7500    0.0000 O   0  0  0  0  0  0  0  0  0  0  0  0
   10.7942    5.7500    0.0000 O   0  0  0  0  0  0  0  0  0  0  0  0
   11.6603    4.2500    0.0000 O   0  0  0  0  0  0  0  0  0  0  0  0
    3.8660   -4.2500    0.0000 O   0  0  0  0  0  0  0  0  0  0  0  0
   12.5263    8.7500    0.0000 N   0  3  0  0  0  0  0  0  0  0  0  0
    3.0000   -8.7500    0.0000 N   0  3  0  0  0  0  0  0  0  0  0  0
    9.9282    4.2500    0.0000 N   0  0  0  0  0  0  0  0  0  0  0  0
    5.5981   -4.2500    0.0000 N   0  0  0  0  0  0  0  0  0  0  0  0
    8.1962    0.2500    0.0000 C   0  0  0  0  0  0  0  0  0  0  0  0
    7.3301   -0.2500    0.0000 C   0  0  0  0  0  0  0  0  0  0  0  0
    8.1962    1.2500    0.0000 C   0  0  0  0  0  0  0  0  0  0  0  0
    7.3301   -1.2500    0.0000 C   0  0  0  0  0  0  0  0  0  0  0  0
    9.0622    1.7500    0.0000 C   0  0  0  0  0  0  0  0  0  0  0  0
    6.4641   -1.7500    0.0000 C   0  0  0  0  0  0  0  0  0  0  0  0
    9.0622    2.7500    0.0000 C   0  0  0  0  0  0  0  0  0  0  0  0
    6.4641   -2.7500    0.0000 C   0  0  0  0  0  0  0  0  0  0  0  0
    5.5981   -3.2500    0.0000 C   0  0  0  0  0  0  0  0  0  0  0  0
    9.9282    3.2500    0.0000 C   0  0  0  0  0  0  0  0  0  0  0  0
   12.5263    7.7500    0.0000 C   0  0  0  0  0  0  0  0  0  0  0  0
    3.0000   -7.7500    0.0000 C   0  0  0  0  0  0  0  0  0  0  0  0
    3.0000   -9.7500    0.0000 C   0  0  0  0  0  0  0  0  0  0  0  0
    2.0000   -8.7500    0.0000 C   0  0  0  0  0  0  0  0  0  0  0  0
    4.0000   -8.7500    0.0000 C   0  0  0  0  0  0  0  0  0  0  0  0
   12.5263    9.7500    0.0000 C   0  0  0  0  0  0  0  0  0  0  0  0
   13.5263    8.7500    0.0000 C   0  0  0  0  0  0  0  0  0  0  0  0
   11.5263    8.7500    0.0000 C   0  0  0  0  0  0  0  0  0  0  0  0
    3.8660   -7.2500    0.0000 C   0  0  0  0  0  0  0  0  0  0  0  0
   11.6603    7.2500    0.0000 C   0  0  0  0  0  0  0  0  0  0  0  0
   13.3923    7.2500    0.0000 C   0  0  0  0  0  0  0  0  0  0  0  0
    2.1340   -7.2500    0.0000 C   0  0  0  0  0  0  0  0  0  0  0  0
   11.6603    6.2500    0.0000 C   0  0  0  0  0  0  0  0  0  0  0  0
    3.8660   -6.2500    0.0000 C   0  0  0  0  0  0  0  0  0  0  0  0
   10.7942    4.7500    0.0000 C   0  0  0  0  0  0  0  0  0  0  0  0
    4.7320   -4.7500    0.0000 C   0  0  0  0  0  0  0  0  0  0  0  0
    9.0622    4.7500    0.0000 C   0  0  0  0  0  0  0  0  0  0  0  0
    6.4641   -4.7500    0.0000 C   0  0  0  0  0  0  0  0  0  0  0  0
    2.1340   -6.2500    0.0000 C   0  0  0  0  0  0  0  0  0  0  0  0
   13.3923    6.2500    0.0000 C   0  0  0  0  0  0  0  0  0  0  0  0
    3.0000   -5.7500    0.0000 C   0  0  0  0  0  0  0  0  0  0  0  0
   12.5263    5.7500    0.0000 C   0  0  0  0  0  0  0  0  0  0  0  0
    8.4082   -0.3326    0.0000 H   0  0  0  0  0  0  0  0  0  0  0  0
    8.8067    0.3577    0.0000 H   0  0  0  0  0  0  0  0  0  0  0  0
    7.1181    0.3326    0.0000 H   0  0  0  0  0  0  0  0  0  0  0  0
    6.7196   -0.3577    0.0000 H   0  0  0  0  0  0  0  0  0  0  0  0
    7.5422   -1.8326    0.0000 H   0  0  0  0  0  0  0  0  0  0  0  0
    7.9407   -1.1423    0.0000 H   0  0  0  0  0  0  0  0  0  0  0  0
    7.9841    1.8326    0.0000 H   0  0  0  0  0  0  0  0  0  0  0  0
    7.5856    1.1423    0.0000 H   0  0  0  0  0  0  0  0  0  0  0  0
    9.2742    1.1674    0.0000 H   0  0  0  0  0  0  0  0  0  0  0  0
    9.6728    1.8577    0.0000 H   0  0  0  0  0  0  0  0  0  0  0  0
    6.2520   -1.1674    0.0000 H   0  0  0  0  0  0  0  0  0  0  0  0
    5.8535   -1.8577    0.0000 H   0  0  0  0  0  0  0  0  0  0  0  0
    6.6762   -3.3326    0.0000 H   0  0  0  0  0  0  0  0  0  0  0  0
    7.0747   -2.6423    0.0000 H   0  0  0  0  0  0  0  0  0  0  0  0
    8.8501    3.3326    0.0000 H   0  0  0  0  0  0  0  0  0  0  0  0
    8.4516    2.6423    0.0000 H   0  0  0  0  0  0  0  0  0  0  0  0
    5.3860   -2.6674    0.0000 H   0  0  0  0  0  0  0  0  0  0  0  0
    4.9875   -3.3577    0.0000 H   0  0  0  0  0  0  0  0  0  0  0  0
   10.1403    2.6674    0.0000 H   0  0  0  0  0  0  0  0  0  0  0  0
   10.5388    3.3577    0.0000 H   0  0  0  0  0  0  0  0  0  0  0  0
    2.3800   -9.7500    0.0000 H   0  0  0  0  0  0  0  0  0  0  0  0
    3.0000  -10.3700    0.0000 H   0  0  0  0  0  0  0  0  0  0  0  0
   11.5263    9.3700    0.0000 H   0  0  0  0  0  0  0  0  0  0  0  0
   10.9063    8.7500    0.0000 H   0  0  0  0  0  0  0  0  0  0  0  0
   11.5263    8.1300    0.0000 H   0  0  0  0  0  0  0  0  0  0  0  0
   13.5263    8.1300    0.0000 H   0  0  0  0  0  0  0  0  0  0  0  0
   14.1463    8.7500    0.0000 H   0  0  0  0  0  0  0  0  0  0  0  0
   13.5263    9.3700    0.0000 H   0  0  0  0  0  0  0  0  0  0  0  0
   13.1463    9.7500    0.0000 H   0  0  0  0  0  0  0  0  0  0  0  0
   12.5263   10.3700    0.0000 H   0  0  0  0  0  0  0  0  0  0  0  0
   11.9063    9.7500    0.0000 H   0  0  0  0  0  0  0  0  0  0  0  0
    4.0000   -9.3700    0.0000 H   0  0  0  0  0  0  0  0  0  0  0  0
    4.6200   -8.7500    0.0000 H   0  0  0  0  0  0  0  0  0  0  0  0
    4.0000   -8.1300    0.0000 H   0  0  0  0  0  0  0  0  0  0  0  0
    2.0000   -8.1300    0.0000 H   0  0  0  0  0  0  0  0  0  0  0  0
    1.3800   -8.7500    0.0000 H   0  0  0  0  0  0  0  0  0  0  0  0
    2.0000   -9.3700    0.0000 H   0  0  0  0  0  0  0  0  0  0  0  0
    3.6200   -9.7500    0.0000 H   0  0  0  0  0  0  0  0  0  0  0  0
    4.4030   -7.5600    0.0000 H   0  0  0  0  0  0  0  0  0  0  0  0
   11.1233    7.5600    0.0000 H   0  0  0  0  0  0  0  0  0  0  0  0
    1.5970   -7.5600    0.0000 H   0  0  0  0  0  0  0  0  0  0  0  0
   13.9292    7.5600    0.0000 H   0  0  0  0  0  0  0  0  0  0  0  0
    6.1541   -5.2869    0.0000 H   0  0  0  0  0  0  0  0  0  0  0  0
    9.3722    5.2869    0.0000 H   0  0  0  0  0  0  0  0  0  0  0  0
    8.5252    5.0600    0.0000 H   0  0  0  0  0  0  0  0  0  0  0  0
    8.7522    4.2131    0.0000 H   0  0  0  0  0  0  0  0  0  0  0  0
    7.0010   -5.0600    0.0000 H   0  0  0  0  0  0  0  0  0  0  0  0
    6.7741   -4.2131    0.0000 H   0  0  0  0  0  0  0  0  0  0  0  0
    1.5970   -5.9400    0.0000 H   0  0  0  0  0  0  0  0  0  0  0  0
   13.9292    5.9400    0.0000 H   0  0  0  0  0  0  0  0  0  0  0  0
    3.0000   -5.1300    0.0000 H   0  0  0  0  0  0  0  0  0  0  0  0
   12.5263    5.1300    0.0000 H   0  0  0  0  0  0  0  0  0  0  0  0
  1 32  1  0  0  0  0
  1 34  1  0  0  0  0
  2 31  1  0  0  0  0
  2 33  1  0  0  0  0
  3 33  2  0  0  0  0
  4 34  2  0  0  0  0
  5 19  1  0  0  0  0
  5 24  1  0  0  0  0
  5 25  1  0  0  0  0
  5 26  1  0  0  0  0
  6 20  1  0  0  0  0
  6 21  1  0  0  0  0
  6 22  1  0  0  0  0
  6 23  1  0  0  0  0
  7 18  1  0  0  0  0
  7 33  1  0  0  0  0
  7 35  1  0  0  0  0
  8 17  1  0  0  0  0
  8 34  1  0  0  0  0
  8 36  1  0  0  0  0
  9 10  1  0  0  0  0
  9 11  1  0  0  0  0
  9 41  1  0  0  0  0
  9 42  1  0  0  0  0
 10 12  1  0  0  0  0
 10 43  1  0  0  0  0
 10 44  1  0  0  0  0
 11 13  1  0  0  0  0
 11 47  1  0  0  0  0
 11 48  1  0  0  0  0
 12 14  1  0  0  0  0
 12 45  1  0  0  0  0
 12 46  1  0  0  0  0
 13 15  1  0  0  0  0
 13 49  1  0  0  0  0
 13 50  1  0  0  0  0
 14 16  1  0  0  0  0
 14 51  1  0  0  0  0
 14 52  1  0  0  0  0
 15 18  1  0  0  0  0
 15 55  1  0  0  0  0
 15 56  1  0  0  0  0
 16 17  1  0  0  0  0
 16 53  1  0  0  0  0
 16 54  1  0  0  0  0
 17 57  1  0  0  0  0
 17 58  1  0  0  0  0
 18 59  1  0  0  0  0
 18 60  1  0  0  0  0
 19 28  2  0  0  0  0
 19 29  1  0  0  0  0
 20 27  2  0  0  0  0
 20 30  1  0  0  0  0
 21 61  1  0  0  0  0
 21 62  1  0  0  0  0
 21 78  1  0  0  0  0
 22 75  1  0  0  0  0
 22 76  1  0  0  0  0
 22 77  1  0  0  0  0
 23 72  1  0  0  0  0
 23 73  1  0  0  0  0
 23 74  1  0  0  0  0
 24 69  1  0  0  0  0
 24 70  1  0  0  0  0
 24 71  1  0  0  0  0
 25 66  1  0  0  0  0
 25 67  1  0  0  0  0
 25 68  1  0  0  0  0
 26 63  1  0  0  0  0
 26 64  1  0  0  0  0
 26 65  1  0  0  0  0
 27 32  1  0  0  0  0
 27 79  1  0  0  0  0
 28 31  1  0  0  0  0
 28 80  1  0  0  0  0
 29 38  2  0  0  0  0
 29 82  1  0  0  0  0
 30 37  2  0  0  0  0
 30 81  1  0  0  0  0
 31 40  2  0  0  0  0
 32 39  2  0  0  0  0
 35 84  1  0  0  0  0
 35 85  1  0  0  0  0
 35 86  1  0  0  0  0
 36 83  1  0  0  0  0
 36 87  1  0  0  0  0
 36 88  1  0  0  0  0
 37 39  1  0  0  0  0
 37 89  1  0  0  0  0
 38 40  1  0  0  0  0
 38 90  1  0  0  0  0
 39 91  1  0  0  0  0
 40 92  1  0  0  0  0
M  CHG  2   5   1   6   1
M  END
> <PUBCHEM_COMPOUND_CID>
5966

> <PUBCHEM_COMPOUND_CANONICALIZED>
1

> <PUBCHEM_CACTVS_COMPLEXITY>
686

> <PUBCHEM_CACTVS_HBOND_ACCEPTOR>
4

> <PUBCHEM_CACTVS_HBOND_DONOR>
0

> <PUBCHEM_CACTVS_ROTATABLE_BOND>
17

> <PUBCHEM_CACTVS_SUBSKEYS>
AAADcfB/uAAAAAAAAAAAAAAAAAAAAAAAAAAwYAAAAAAAAAABQAAAHgAAAAAACAzBkAQyzoMABACIACRCWACCCAAhIgAIiAAObIgMJiLEsZuMMihmxhlI6AeQ0IMAAAAAAgAAAAAAAAAEAAAAAAAAAAAAAA==

> <PUBCHEM_IUPAC_OPENEYE_NAME>
trimethyl-[3-[methyl-[10-[methyl-[3-(trimethylammonio)phenoxy]carbonyl-amino]decyl]carbamoyl]oxyphenyl]ammonium

> <PUBCHEM_IUPAC_CAS_NAME>
trimethyl-[3-[[methyl-[10-[methyl-[oxo-[3-(trimethylammonio)phenoxy]methyl]amino]decyl]amino]-oxomethoxy]phenyl]ammonium

> <PUBCHEM_IUPAC_NAME>
trimethyl-[3-[methyl-[10-[methyl-[3-(trimethylazaniumyl)phenoxy]carbonylamino]decyl]carbamoyl]oxyphenyl]azanium

> <PUBCHEM_IUPAC_SYSTEMATIC_NAME>
trimethyl-[3-[methyl-[10-[methyl-[3-(trimethylazaniumyl)phenoxy]carbonyl-amino]decyl]carbamoyl]oxyphenyl]azanium

> <PUBCHEM_IUPAC_TRADITIONAL_NAME>
trimethyl-[3-[methyl-[10-[methyl-[3-(trimethylammonio)phenoxy]carbonyl-amino]decyl]carbamoyl]oxyphenyl]ammonium

> <PUBCHEM_IUPAC_INCHI>
InChI=1S/C32H52N4O4/c1-33(31(37)39-29-21-17-19-27(25-29)35(3,4)5)23-15-13-11-9-10-12-14-16-24-34(2)32(38)40-30-22-18-20-28(26-30)36(6,7)8/h17-22,25-26H,9-16,23-24H2,1-8H3/q+2

> <PUBCHEM_IUPAC_INCHIKEY>
RWZVPVOZTJJMNU-UHFFFAOYSA-N

> <PUBCHEM_XLOGP3_AA>
6.6

> <PUBCHEM_EXACT_MASS>
556.398856

> <PUBCHEM_MOLECULAR_FORMULA>
C32H52N4O4+2

> <PUBCHEM_MOLECULAR_WEIGHT>
556.77968

> <PUBCHEM_OPENEYE_CAN_SMILES>
CN(CCCCCCCCCCN(C)C(=O)OC1=CC=CC(=C1)[N+](C)(C)C)C(=O)OC2=CC=CC(=C2)[N+](C)(C)C

> <PUBCHEM_OPENEYE_ISO_SMILES>
CN(CCCCCCCCCCN(C)C(=O)OC1=CC=CC(=C1)[N+](C)(C)C)C(=O)OC2=CC=CC(=C2)[N+](C)(C)C

> <PUBCHEM_CACTVS_TPSA>
59.1

> <PUBCHEM_MONOISOTOPIC_WEIGHT>
556.398856

> <PUBCHEM_TOTAL_CHARGE>
2

> <PUBCHEM_HEAVY_ATOM_COUNT>
40

> <PUBCHEM_ATOM_DEF_STEREO_COUNT>
0

> <PUBCHEM_ATOM_UDEF_STEREO_COUNT>
0

> <PUBCHEM_BOND_DEF_STEREO_COUNT>
0

> <PUBCHEM_BOND_UDEF_STEREO_COUNT>
0

> <PUBCHEM_ISOTOPIC_ATOM_COUNT>
0

> <PUBCHEM_COMPONENT_COUNT>
1

> <PUBCHEM_CACTVS_TAUTO_COUNT>
1

> <PUBCHEM_COORDINATE_TYPE>
1
5
255

> <PUBCHEM_BONDANNOTATIONS>
19  28  8
19  29  8
20  27  8
20  30  8
27  32  8
28  31  8
29  38  8
30  37  8
31  40  8
32  39  8
37  39  8
38  40  8

$$$$

