17396160
  -OEChem-06241222543D

 34 36  0     0  0  0  0  0  0999 V2000
   -5.9698    1.0827   -1.3208 S   0  0  0  0  0  0  0  0  0  0  0  0
   -0.5224    0.6027    0.0728 O   0  0  0  0  0  0  0  0  0  0  0  0
    6.9671    0.1173    0.5546 O   0  0  0  0  0  0  0  0  0  0  0  0
   -4.7137    0.1056    0.6904 N   0  0  0  0  0  0  0  0  0  0  0  0
   -3.5336   -0.3169   -1.1589 N   0  0  0  0  0  0  0  0  0  0  0  0
    0.7896   -1.3380   -0.1466 N   0  0  0  0  0  0  0  0  0  0  0  0
   -2.8999   -0.8237   -0.0393 C   0  0  0  0  0  0  0  0  0  0  0  0
   -1.5945   -1.5433   -0.1734 C   0  0  0  0  0  0  0  0  0  0  0  0
   -3.6149   -0.5729    1.1206 C   0  0  0  0  0  0  0  0  0  0  0  0
   -4.6102    0.2259   -0.6619 C   0  0  0  0  0  0  0  0  0  0  0  0
   -0.3958   -0.6096   -0.0645 C   0  0  0  0  0  0  0  0  0  0  0  0
   -5.8359    0.6659    1.2527 C   0  0  0  0  0  0  0  0  0  0  0  0
    2.0821   -0.8167   -0.0851 C   0  0  0  0  0  0  0  0  0  0  0  0
   -6.6209    1.2336    0.3212 C   0  0  0  0  0  0  0  0  0  0  0  0
    2.2740    0.5557    0.0730 C   0  0  0  0  0  0  0  0  0  0  0  0
    3.1826   -1.6683   -0.1819 C   0  0  0  0  0  0  0  0  0  0  0  0
    4.6669    0.2254    0.0369 C   0  0  0  0  0  0  0  0  0  0  0  0
    3.5664    1.0770    0.1339 C   0  0  0  0  0  0  0  0  0  0  0  0
    4.4750   -1.1472   -0.1210 C   0  0  0  0  0  0  0  0  0  0  0  0
    6.0144    0.7689    0.0989 C   0  0  0  0  0  0  0  0  0  0  0  0
    6.2936    2.1756   -0.4018 C   0  0  0  0  0  0  0  0  0  0  0  0
   -1.5547   -2.0482   -1.1459 H   0  0  0  0  0  0  0  0  0  0  0  0
   -1.5155   -2.3112    0.6055 H   0  0  0  0  0  0  0  0  0  0  0  0
   -3.4364   -0.8107    2.1602 H   0  0  0  0  0  0  0  0  0  0  0  0
   -6.0118    0.6245    2.3168 H   0  0  0  0  0  0  0  0  0  0  0  0
    0.7206   -2.3465   -0.2630 H   0  0  0  0  0  0  0  0  0  0  0  0
   -7.5569    1.7373    0.5170 H   0  0  0  0  0  0  0  0  0  0  0  0
    1.4851    1.2877    0.1599 H   0  0  0  0  0  0  0  0  0  0  0  0
    3.0476   -2.7398   -0.3061 H   0  0  0  0  0  0  0  0  0  0  0  0
    3.6880    2.1482    0.2704 H   0  0  0  0  0  0  0  0  0  0  0  0
    5.3206   -1.8252   -0.2023 H   0  0  0  0  0  0  0  0  0  0  0  0
    6.1573    2.8893    0.4144 H   0  0  0  0  0  0  0  0  0  0  0  0
    5.6388    2.4281   -1.2403 H   0  0  0  0  0  0  0  0  0  0  0  0
    7.3245    2.2291   -0.7649 H   0  0  0  0  0  0  0  0  0  0  0  0
  1 10  1  0  0  0  0
  1 14  1  0  0  0  0
  2 11  2  0  0  0  0
  3 20  2  0  0  0  0
  4  9  1  0  0  0  0
  4 10  1  0  0  0  0
  4 12  1  0  0  0  0
  5  7  1  0  0  0  0
  5 10  2  0  0  0  0
  6 11  1  0  0  0  0
  6 13  1  0  0  0  0
  6 26  1  0  0  0  0
  7  8  1  0  0  0  0
  7  9  2  0  0  0  0
  8 11  1  0  0  0  0
  8 22  1  0  0  0  0
  8 23  1  0  0  0  0
  9 24  1  0  0  0  0
 12 14  2  0  0  0  0
 12 25  1  0  0  0  0
 13 15  2  0  0  0  0
 13 16  1  0  0  0  0
 14 27  1  0  0  0  0
 15 18  1  0  0  0  0
 15 28  1  0  0  0  0
 16 19  2  0  0  0  0
 16 29  1  0  0  0  0
 17 18  2  0  0  0  0
 17 19  1  0  0  0  0
 17 20  1  0  0  0  0
 18 30  1  0  0  0  0
 19 31  1  0  0  0  0
 20 21  1  0  0  0  0
 21 32  1  0  0  0  0
 21 33  1  0  0  0  0
 21 34  1  0  0  0  0
M  END
> <PUBCHEM_COMPOUND_CID>
17396160

> <PUBCHEM_CONFORMER_RMSD>
0.8

> <PUBCHEM_CONFORMER_DIVERSEORDER>
1
21
9
35
4
6
33
25
23
29
19
7
2
8
28
26
31
11
3
12
24
15
14
10
18
13
17
16
5
32
30
22
27
20
34

> <PUBCHEM_MMFF94_PARTIAL_CHARGES>
29
1 -0.16
10 0.24
11 0.57
12 -0.18
13 0.12
14 -0.05
15 -0.15
16 -0.15
17 0.09
18 -0.15
19 -0.15
2 -0.57
20 0.42
21 0.06
24 0.15
25 0.15
26 0.37
27 0.15
28 0.15
29 0.15
3 -0.57
30 0.15
31 0.15
4 0.33
5 -0.57
6 -0.55
7 0.05
8 0.24
9 -0.3

> <PUBCHEM_EFFECTIVE_ROTOR_COUNT>
5

> <PUBCHEM_PHARMACOPHORE_FEATURES>
7
1 2 acceptor
1 3 acceptor
1 6 donor
3 4 5 10 cation
5 1 4 10 12 14 rings
5 4 5 7 9 10 rings
6 13 15 16 17 18 19 rings

> <PUBCHEM_HEAVY_ATOM_COUNT>
21

> <PUBCHEM_ATOM_DEF_STEREO_COUNT>
0

> <PUBCHEM_ATOM_UDEF_STEREO_COUNT>
0

> <PUBCHEM_BOND_DEF_STEREO_COUNT>
0

> <PUBCHEM_BOND_UDEF_STEREO_COUNT>
0

> <PUBCHEM_ISOTOPIC_ATOM_COUNT>
0

> <PUBCHEM_COMPONENT_COUNT>
1

> <PUBCHEM_CACTVS_TAUTO_COUNT>
9

> <PUBCHEM_CONFORMER_ID>
010971C000000001

> <PUBCHEM_MMFF94_ENERGY>
56.3522

> <PUBCHEM_FEATURE_SELFOVERLAP>
35.772

> <PUBCHEM_SHAPE_FINGERPRINT>
10 15 17703787003079953657
10411042 1 17833266803256099246
10906281 52 18113885066110737546
11089746 13 17530687593247652672
11315181 36 5184345227027591331
11524674 6 14836118854168307121
11578080 2 14044588057200176964
117890 112 18335138695925384946
12236239 1 17749110006174517039
12596602 18 17775567541720554529
12616971 3 14548731777180244818
13167372 99 18262234533621159464
13288520 33 10087640399574928635
13533116 47 17531245123316713398
13631057 29 18190187798274107351
13668630 136 9007059067024645224
13685833 64 9727635012004528620
13885169 127 9151183047874534467
1420 363 8718826504760596245
14251764 18 18408323268165481127
14528608 73 17167868551532988202
15048467 5 18333731320820272712
15183329 4 17603870018104223457
15188451 53 15482380951289098331
15348495 7 17274814710382556208
15716309 27 11384114146187623301
1577012 14 17675924330945288827
16079462 125 18201728352873109005
17870717 6 13767927919174219207
18222031 100 5473139631122250826
18335252 98 18260544499310426703
20281389 69 18202003235096132181
20526848 3 18335134293431211697
20621476 66 18333726944723579161
21033648 29 18130802161006807453
21150785 3 14273741737509084304
220451 1 15574712521720019167
22224240 67 17704352165532486987
22288116 15 17313676949562352503
23035841 295 11312053253862913849
23081809 10 17313105293283382063
23198884 109 16587742049485918293
23402539 116 17313106332665064996
23402655 69 18186803556737476158
23559900 14 6266605499915092711
2767999 5 18187368730977281720
2838139 119 18186241727633505441
2916195 48 18131633387486250531
29717793 49 17385436648969001286
300161 21 18040437689586433750
328310 630 18335696109619008669
34797466 226 14346086278074908667
3545911 37 18410572877150277978
4073 2 18201715107400203482
4340502 62 16917351437747885186
465052 167 10087645905765180880
5104073 3 18199756851874563346
5364581 5 17345178996590233069
542803 24 17749110006369591747
6328613 192 18334010558451909792
7495541 125 13542172875190164175
9953998 17 18201988929836397651
999808 66 7204483455837465557

> <PUBCHEM_SHAPE_MULTIPOLES>
409.34
19.56
1.63
0.97
1.62
0.14
-0.01
9.84
0.91
1.45
-0.17
-1.57
0.12
0.18

> <PUBCHEM_SHAPE_SELFOVERLAP>
878.717

> <PUBCHEM_SHAPE_VOLUME>
228.3

> <PUBCHEM_COORDINATE_TYPE>
2
5
10

$$$$

