17395861
  -OEChem-06241222522D

 50 54  0     1  0  0  0  0  0999 V2000
    4.9889    4.1471    0.0000 O   0  0  0  0  0  0  0  0  0  0  0  0
    4.9889    0.6366    0.0000 O   0  0  0  0  0  0  0  0  0  0  0  0
    9.2506   -1.1753    0.0000 O   0  0  0  0  0  0  0  0  0  0  0  0
    6.7619    1.5258    0.0000 N   0  0  0  0  0  0  0  0  0  0  0  0
    5.2619    2.3919    0.0000 N   0  0  0  0  0  0  0  0  0  0  0  0
    7.8568   -1.9800    0.0000 N   0  0  0  0  0  0  0  0  0  0  0  0
    3.7320    2.8919    0.0000 C   0  0  3  0  0  0  0  0  0  0  0  0
    3.7320    1.8919    0.0000 C   0  0  3  0  0  0  0  0  0  0  0  0
    7.7619   -0.2062    0.0000 C   0  0  0  0  0  0  0  0  0  0  0  0
    6.2619    2.3919    0.0000 C   0  0  0  0  0  0  0  0  0  0  0  0
    6.2619    0.6598    0.0000 C   0  0  0  0  0  0  0  0  0  0  0  0
    7.7619    1.5258    0.0000 C   0  0  0  0  0  0  0  0  0  0  0  0
    4.6783    1.5871    0.0000 C   0  0  0  0  0  0  0  0  0  0  0  0
    4.6783    3.1966    0.0000 C   0  0  0  0  0  0  0  0  0  0  0  0
    8.2619    0.6598    0.0000 C   0  0  0  0  0  0  0  0  0  0  0  0
    6.7619   -0.2062    0.0000 C   0  0  0  0  0  0  0  0  0  0  0  0
    2.8660    3.3919    0.0000 C   0  0  0  0  0  0  0  0  0  0  0  0
    2.8660    1.3919    0.0000 C   0  0  0  0  0  0  0  0  0  0  0  0
    2.0000    2.8919    0.0000 C   0  0  0  0  0  0  0  0  0  0  0  0
    2.0000    1.8919    0.0000 C   0  0  0  0  0  0  0  0  0  0  0  0
    8.2619   -1.0722    0.0000 C   0  0  0  0  0  0  0  0  0  0  0  0
    9.4598   -2.1471    0.0000 C   0  0  0  0  0  0  0  0  0  0  0  0
    8.5938   -2.6471    0.0000 C   0  0  0  0  0  0  0  0  0  0  0  0
   10.3258   -2.6471    0.0000 C   0  0  0  0  0  0  0  0  0  0  0  0
    8.5938   -3.6471    0.0000 C   0  0  0  0  0  0  0  0  0  0  0  0
   10.3258   -3.6471    0.0000 C   0  0  0  0  0  0  0  0  0  0  0  0
    9.4598   -4.1471    0.0000 C   0  0  0  0  0  0  0  0  0  0  0  0
    3.7977    3.5084    0.0000 H   0  0  0  0  0  0  0  0  0  0  0  0
    3.7977    1.2753    0.0000 H   0  0  0  0  0  0  0  0  0  0  0  0
    7.4519   -0.7432    0.0000 H   0  0  0  0  0  0  0  0  0  0  0  0
    6.8445    2.6039    0.0000 H   0  0  0  0  0  0  0  0  0  0  0  0
    6.1542    3.0024    0.0000 H   0  0  0  0  0  0  0  0  0  0  0  0
    5.7869    1.0583    0.0000 H   0  0  0  0  0  0  0  0  0  0  0  0
    5.7869    0.2613    0.0000 H   0  0  0  0  0  0  0  0  0  0  0  0
    8.3445    1.7379    0.0000 H   0  0  0  0  0  0  0  0  0  0  0  0
    7.6542    2.1364    0.0000 H   0  0  0  0  0  0  0  0  0  0  0  0
    6.1793   -0.4183    0.0000 H   0  0  0  0  0  0  0  0  0  0  0  0
    6.8695   -0.8168    0.0000 H   0  0  0  0  0  0  0  0  0  0  0  0
    8.7368    0.2613    0.0000 H   0  0  0  0  0  0  0  0  0  0  0  0
    8.7368    1.0583    0.0000 H   0  0  0  0  0  0  0  0  0  0  0  0
    3.2646    3.8668    0.0000 H   0  0  0  0  0  0  0  0  0  0  0  0
    2.4675    3.8668    0.0000 H   0  0  0  0  0  0  0  0  0  0  0  0
    2.4675    0.9169    0.0000 H   0  0  0  0  0  0  0  0  0  0  0  0
    3.2646    0.9169    0.0000 H   0  0  0  0  0  0  0  0  0  0  0  0
    1.4631    1.5819    0.0000 H   0  0  0  0  0  0  0  0  0  0  0  0
    1.4631    3.2019    0.0000 H   0  0  0  0  0  0  0  0  0  0  0  0
   10.8628   -2.3371    0.0000 H   0  0  0  0  0  0  0  0  0  0  0  0
    8.0569   -3.9571    0.0000 H   0  0  0  0  0  0  0  0  0  0  0  0
   10.8628   -3.9571    0.0000 H   0  0  0  0  0  0  0  0  0  0  0  0
    9.4598   -4.7671    0.0000 H   0  0  0  0  0  0  0  0  0  0  0  0
  1 14  2  0  0  0  0
  2 13  2  0  0  0  0
  3 21  1  0  0  0  0
  3 22  1  0  0  0  0
  4 10  1  0  0  0  0
  4 11  1  0  0  0  0
  4 12  1  0  0  0  0
  5 10  1  0  0  0  0
  5 13  1  0  0  0  0
  5 14  1  0  0  0  0
  6 21  2  0  0  0  0
  6 23  1  0  0  0  0
  7  8  1  0  0  0  0
  7 14  1  0  0  0  0
  7 17  1  0  0  0  0
  7 28  1  0  0  0  0
  8 13  1  0  0  0  0
  8 18  1  0  0  0  0
  8 29  1  0  0  0  0
  9 15  1  0  0  0  0
  9 16  1  0  0  0  0
  9 21  1  0  0  0  0
  9 30  1  0  0  0  0
 10 31  1  0  0  0  0
 10 32  1  0  0  0  0
 11 16  1  0  0  0  0
 11 33  1  0  0  0  0
 11 34  1  0  0  0  0
 12 15  1  0  0  0  0
 12 35  1  0  0  0  0
 12 36  1  0  0  0  0
 15 39  1  0  0  0  0
 15 40  1  0  0  0  0
 16 37  1  0  0  0  0
 16 38  1  0  0  0  0
 17 19  1  0  0  0  0
 17 41  1  0  0  0  0
 17 42  1  0  0  0  0
 18 20  1  0  0  0  0
 18 43  1  0  0  0  0
 18 44  1  0  0  0  0
 19 20  2  0  0  0  0
 19 46  1  0  0  0  0
 20 45  1  0  0  0  0
 22 23  1  0  0  0  0
 22 24  2  0  0  0  0
 23 25  2  0  0  0  0
 24 26  1  0  0  0  0
 24 47  1  0  0  0  0
 25 27  1  0  0  0  0
 25 48  1  0  0  0  0
 26 27  2  0  0  0  0
 26 49  1  0  0  0  0
 27 50  1  0  0  0  0
M  END
> <PUBCHEM_COMPOUND_CID>
17395861

> <PUBCHEM_COMPOUND_CANONICALIZED>
1

> <PUBCHEM_CACTVS_COMPLEXITY>
602

> <PUBCHEM_CACTVS_HBOND_ACCEPTOR>
5

> <PUBCHEM_CACTVS_HBOND_DONOR>
0

> <PUBCHEM_CACTVS_ROTATABLE_BOND>
3

> <PUBCHEM_CACTVS_SUBSKEYS>
AAADceB7MAAAAAAAAAAAAAAAAAAAAWLAAAA8QIAAAAAAAFgB8AAAHgAAAAAADQzBlgQxxrMIFECoAaVyVASCiCAvYiAImCG/bNiOJrLEtbuPOSjsxzPY6Ye9SAAOgAAAAAAAEAAAAAAAAAAgAAAAAAAAAA==

> <PUBCHEM_IUPAC_OPENEYE_NAME>
2-[[4-(1,3-benzoxazol-2-yl)-1-piperidyl]methyl]-3a,4,7,7a-tetrahydroisoindole-1,3-dione

> <PUBCHEM_IUPAC_CAS_NAME>
2-[[4-(1,3-benzoxazol-2-yl)-1-piperidinyl]methyl]-3a,4,7,7a-tetrahydroisoindole-1,3-dione

> <PUBCHEM_IUPAC_NAME>
2-[[4-(1,3-benzoxazol-2-yl)piperidin-1-yl]methyl]-3a,4,7,7a-tetrahydroisoindole-1,3-dione

> <PUBCHEM_IUPAC_SYSTEMATIC_NAME>
2-[[4-(1,3-benzoxazol-2-yl)piperidin-1-yl]methyl]-3a,4,7,7a-tetrahydroisoindole-1,3-dione

> <PUBCHEM_IUPAC_TRADITIONAL_NAME>
2-[[4-(1,3-benzoxazol-2-yl)piperidino]methyl]-3a,4,7,7a-tetrahydroisoindole-1,3-quinone

> <PUBCHEM_IUPAC_INCHI>
InChI=1S/C21H23N3O3/c25-20-15-5-1-2-6-16(15)21(26)24(20)13-23-11-9-14(10-12-23)19-22-17-7-3-4-8-18(17)27-19/h1-4,7-8,14-16H,5-6,9-13H2

> <PUBCHEM_IUPAC_INCHIKEY>
PNSBEHCBAMMZHK-UHFFFAOYSA-N

> <PUBCHEM_XLOGP3_AA>
2.6

> <PUBCHEM_EXACT_MASS>
365.173942

> <PUBCHEM_MOLECULAR_FORMULA>
C21H23N3O3

> <PUBCHEM_MOLECULAR_WEIGHT>
365.42562

> <PUBCHEM_OPENEYE_CAN_SMILES>
C1CN(CCC1C2=NC3=CC=CC=C3O2)CN4C(=O)C5CC=CCC5C4=O

> <PUBCHEM_OPENEYE_ISO_SMILES>
C1CN(CCC1C2=NC3=CC=CC=C3O2)CN4C(=O)C5CC=CCC5C4=O

> <PUBCHEM_CACTVS_TPSA>
66.6

> <PUBCHEM_MONOISOTOPIC_WEIGHT>
365.173942

> <PUBCHEM_TOTAL_CHARGE>
0

> <PUBCHEM_HEAVY_ATOM_COUNT>
27

> <PUBCHEM_ATOM_DEF_STEREO_COUNT>
0

> <PUBCHEM_ATOM_UDEF_STEREO_COUNT>
2

> <PUBCHEM_BOND_DEF_STEREO_COUNT>
0

> <PUBCHEM_BOND_UDEF_STEREO_COUNT>
0

> <PUBCHEM_ISOTOPIC_ATOM_COUNT>
0

> <PUBCHEM_COMPONENT_COUNT>
1

> <PUBCHEM_CACTVS_TAUTO_COUNT>
3

> <PUBCHEM_COORDINATE_TYPE>
1
5
255

> <PUBCHEM_BONDANNOTATIONS>
22  23  8
22  24  8
23  25  8
24  26  8
25  27  8
26  27  8
3  21  8
3  22  8
6  21  8
6  23  8
7  17  3
8  18  3

$$$$

