4516
  -OEChem-06261200113D

 28 27  0     1  0  0  0  0  0999 V2000
    1.6177    0.4715    1.9795 O   0  5  0  0  0  0  0  0  0  0  0  0
    1.4295    1.9279   -1.2607 O   0  0  0  0  0  0  0  0  0  0  0  0
   -2.6071   -0.5400    0.0086 N   0  3  0  0  0  0  0  0  0  0  0  0
    1.1213   -0.6056   -0.2719 N   0  0  2  0  0  0  0  0  0  0  0  0
    1.4499    0.5869    0.5664 N   0  0  0  0  0  0  0  0  0  0  0  0
    1.6011    1.9237   -0.0367 N   0  0  0  0  0  0  0  0  0  0  0  0
   -1.2378    0.0147   -0.1245 C   0  0  0  0  0  0  0  0  0  0  0  0
   -0.2358   -1.1272   -0.0950 C   0  0  0  0  0  0  0  0  0  0  0  0
   -3.6917    0.4768   -0.0633 C   0  0  0  0  0  0  0  0  0  0  0  0
    2.0830   -1.7094   -0.2701 C   0  0  0  0  0  0  0  0  0  0  0  0
   -5.0330   -0.2187    0.0197 C   0  0  0  0  0  0  0  0  0  0  0  0
    3.5030   -1.2006   -0.4521 C   0  0  0  0  0  0  0  0  0  0  0  0
   -1.2000    0.5561   -1.0763 H   0  0  0  0  0  0  0  0  0  0  0  0
   -1.1135    0.7157    0.7061 H   0  0  0  0  0  0  0  0  0  0  0  0
   -0.3219   -1.6673    0.8567 H   0  0  0  0  0  0  0  0  0  0  0  0
   -0.4675   -1.8360   -0.8998 H   0  0  0  0  0  0  0  0  0  0  0  0
   -2.6819   -1.0515    0.8992 H   0  0  0  0  0  0  0  0  0  0  0  0
   -2.7585   -1.2409   -0.7305 H   0  0  0  0  0  0  0  0  0  0  0  0
   -3.5517    1.1699    0.7719 H   0  0  0  0  0  0  0  0  0  0  0  0
   -3.5857    1.0101   -1.0130 H   0  0  0  0  0  0  0  0  0  0  0  0
    2.0284   -2.2780    0.6662 H   0  0  0  0  0  0  0  0  0  0  0  0
    1.8546   -2.3994   -1.0912 H   0  0  0  0  0  0  0  0  0  0  0  0
   -5.8432    0.5155   -0.0295 H   0  0  0  0  0  0  0  0  0  0  0  0
   -5.1654   -0.9242   -0.8072 H   0  0  0  0  0  0  0  0  0  0  0  0
   -5.1344   -0.7719    0.9592 H   0  0  0  0  0  0  0  0  0  0  0  0
    3.5942   -0.5891   -1.3563 H   0  0  0  0  0  0  0  0  0  0  0  0
    3.8500   -0.6113    0.4017 H   0  0  0  0  0  0  0  0  0  0  0  0
    4.1882   -2.0486   -0.5578 H   0  0  0  0  0  0  0  0  0  0  0  0
  1  5  1  0  0  0  0
  2  6  2  0  0  0  0
  3  7  1  0  0  0  0
  3  9  1  0  0  0  0
  3 17  1  0  0  0  0
  3 18  1  0  0  0  0
  4  5  1  0  0  0  0
  4  8  1  0  0  0  0
  4 10  1  0  0  0  0
  5  6  1  0  0  0  0
  7  8  1  0  0  0  0
  7 13  1  0  0  0  0
  7 14  1  0  0  0  0
  8 15  1  0  0  0  0
  8 16  1  0  0  0  0
  9 11  1  0  0  0  0
  9 19  1  0  0  0  0
  9 20  1  0  0  0  0
 10 12  1  0  0  0  0
 10 21  1  0  0  0  0
 10 22  1  0  0  0  0
 11 23  1  0  0  0  0
 11 24  1  0  0  0  0
 11 25  1  0  0  0  0
 12 26  1  0  0  0  0
 12 27  1  0  0  0  0
 12 28  1  0  0  0  0
M  CHG  2   1  -1   3   1
M  END
> <PUBCHEM_COMPOUND_CID>
4516

> <PUBCHEM_CONFORMER_RMSD>
0.8

> <PUBCHEM_CONFORMER_DIVERSEORDER>
1
84
64
50
49
154
117
101
62
3
54
92
55
142
112
129
8
70
115
152
17
126
67
31
82
85
124
151
2
116
139
24
157
26
81
34
111
143
140
30
98
11
161
36
105
146
61
93
29
22
45
131
130
159
72
132
75
109
53
145
120
6
94
104
52
114
71
160
118
37
42
141
44
38
91
89
21
110
4
153
51
78
43
47
158
102
108
113
121
63
119
58
56
16
9
122
156
97
87
57
18
127
68
32
133
33
147
99
66
83
134
100
128
96
25
74
13
76
95
65
12
46
137
138
80
35
41
155
107
149
7
150
86
136
5
125
48
90
73
144
28
59
103
106
40
135
88
10
60
79
27
148
69
39
23
77
15
19
14
20
123

> <PUBCHEM_MMFF94_PARTIAL_CHARGES>
12
1 -0.86
10 0.27
17 0.45
18 0.45
2 -0.16
3 -0.91
4 -0.69
5 0.34
6 -0.17
7 0.5
8 0.27
9 0.5

> <PUBCHEM_EFFECTIVE_ROTOR_COUNT>
7

> <PUBCHEM_PHARMACOPHORE_FEATURES>
2
1 3 cation
1 3 donor

> <PUBCHEM_HEAVY_ATOM_COUNT>
12

> <PUBCHEM_ATOM_DEF_STEREO_COUNT>
0

> <PUBCHEM_ATOM_UDEF_STEREO_COUNT>
0

> <PUBCHEM_BOND_DEF_STEREO_COUNT>
0

> <PUBCHEM_BOND_UDEF_STEREO_COUNT>
0

> <PUBCHEM_ISOTOPIC_ATOM_COUNT>
0

> <PUBCHEM_COMPONENT_COUNT>
1

> <PUBCHEM_CACTVS_TAUTO_COUNT>
1

> <PUBCHEM_CONFORMER_ID>
000011A400000001

> <PUBCHEM_MMFF94_ENERGY>
10.6571

> <PUBCHEM_FEATURE_SELFOVERLAP>
10.148

> <PUBCHEM_SHAPE_FINGERPRINT>
12932764 1 16916797266544098967
14648413 74 18199740358667181578
170605 34 17916584215787700333
18186145 218 17917716799285744927
20339313 130 18409724092754338197
20671657 1 18335416820811936509
20708731 107 18410287004063616478
23380061 81 18412820274996881801
23526113 38 17987224706815101003
3248919 1 18340218379885601951
7364860 26 18335983077874494308

> <PUBCHEM_SHAPE_MULTIPOLES>
215.29
7.27
1.73
1
9.96
0.63
-0.38
-1.53
0.36
-1.71
0.38
-0.68
0.39
0.13

> <PUBCHEM_SHAPE_SELFOVERLAP>
379.349

> <PUBCHEM_SHAPE_VOLUME>
141.4

> <PUBCHEM_COORDINATE_TYPE>
2
5
10

$$$$

