14100
  -OEChem-06241222423D

 21 21  0     0  0  0  0  0  0999 V2000
    0.3732   -0.8347   -0.0121 N   0  0  0  0  0  0  0  0  0  0  0  0
    4.9142    0.7748    0.0108 N   0  0  0  0  0  0  0  0  0  0  0  0
    1.5129    0.0291   -0.0223 C   0  0  0  0  0  0  0  0  0  0  0  0
   -0.9526   -0.3535   -0.0047 C   0  0  0  0  0  0  0  0  0  0  0  0
    2.8007   -0.7902    0.0047 C   0  0  0  0  0  0  0  0  0  0  0  0
   -1.1959    1.0200   -0.0071 C   0  0  0  0  0  0  0  0  0  0  0  0
   -2.0204   -1.2508    0.0042 C   0  0  0  0  0  0  0  0  0  0  0  0
   -2.5069    1.4962   -0.0005 C   0  0  0  0  0  0  0  0  0  0  0  0
   -3.3315   -0.7747    0.0107 C   0  0  0  0  0  0  0  0  0  0  0  0
   -3.5747    0.5988    0.0083 C   0  0  0  0  0  0  0  0  0  0  0  0
    3.9810    0.0852    0.0080 C   0  0  0  0  0  0  0  0  0  0  0  0
    1.5079    0.6586   -0.9214 H   0  0  0  0  0  0  0  0  0  0  0  0
    1.4983    0.6923    0.8524 H   0  0  0  0  0  0  0  0  0  0  0  0
    0.5026   -1.8406   -0.0143 H   0  0  0  0  0  0  0  0  0  0  0  0
    2.8174   -1.4326    0.8933 H   0  0  0  0  0  0  0  0  0  0  0  0
    2.8387   -1.4565   -0.8656 H   0  0  0  0  0  0  0  0  0  0  0  0
   -0.3954    1.7536   -0.0154 H   0  0  0  0  0  0  0  0  0  0  0  0
   -1.8444   -2.3234    0.0060 H   0  0  0  0  0  0  0  0  0  0  0  0
   -2.6970    2.5655   -0.0027 H   0  0  0  0  0  0  0  0  0  0  0  0
   -4.1631   -1.4733    0.0175 H   0  0  0  0  0  0  0  0  0  0  0  0
   -4.5956    0.9695    0.0132 H   0  0  0  0  0  0  0  0  0  0  0  0
  1  3  1  0  0  0  0
  1  4  1  0  0  0  0
  1 14  1  0  0  0  0
  2 11  3  0  0  0  0
  3  5  1  0  0  0  0
  3 12  1  0  0  0  0
  3 13  1  0  0  0  0
  4  6  2  0  0  0  0
  4  7  1  0  0  0  0
  5 11  1  0  0  0  0
  5 15  1  0  0  0  0
  5 16  1  0  0  0  0
  6  8  1  0  0  0  0
  6 17  1  0  0  0  0
  7  9  2  0  0  0  0
  7 18  1  0  0  0  0
  8 10  2  0  0  0  0
  8 19  1  0  0  0  0
  9 10  1  0  0  0  0
  9 20  1  0  0  0  0
 10 21  1  0  0  0  0
M  END
> <PUBCHEM_COMPOUND_CID>
14100

> <PUBCHEM_CONFORMER_RMSD>
0.6

> <PUBCHEM_CONFORMER_DIVERSEORDER>
1
5
6
2
9
3
7
8
4

> <PUBCHEM_MMFF94_PARTIAL_CHARGES>
17
1 -0.87
10 -0.15
11 0.36
14 0.4
17 0.15
18 0.15
19 0.15
2 -0.56
20 0.15
21 0.15
3 0.37
4 0.1
5 0.2
6 -0.15
7 -0.15
8 -0.15
9 -0.15

> <PUBCHEM_EFFECTIVE_ROTOR_COUNT>
3

> <PUBCHEM_PHARMACOPHORE_FEATURES>
4
1 1 cation
1 1 donor
1 2 acceptor
6 4 6 7 8 9 10 rings

> <PUBCHEM_HEAVY_ATOM_COUNT>
11

> <PUBCHEM_ATOM_DEF_STEREO_COUNT>
0

> <PUBCHEM_ATOM_UDEF_STEREO_COUNT>
0

> <PUBCHEM_BOND_DEF_STEREO_COUNT>
0

> <PUBCHEM_BOND_UDEF_STEREO_COUNT>
0

> <PUBCHEM_ISOTOPIC_ATOM_COUNT>
0

> <PUBCHEM_COMPONENT_COUNT>
1

> <PUBCHEM_CACTVS_TAUTO_COUNT>
1

> <PUBCHEM_CONFORMER_ID>
0000371400000001

> <PUBCHEM_MMFF94_ENERGY>
29.4737

> <PUBCHEM_FEATURE_SELFOVERLAP>
20.297

> <PUBCHEM_SHAPE_FINGERPRINT>
10014705 185 18273501190869553525
11062470 55 18343019990988930486
12346645 44 18343303699248616346
12932764 1 17168440319265414182
13024252 1 15841830062794319097
13897977 58 18411976944919614868
14144814 61 18343302604037074642
14325111 11 18410856602816452262
15669948 3 18335713727432406087
190213 19 17489584580226127810
20645477 56 18411133684131426389
20645477 70 17458900556875688478
23402539 116 18409738339736125655
23559900 14 18262520415899051222
77779 3 18410009957688895638

> <PUBCHEM_SHAPE_MULTIPOLES>
216.41
8.29
1.32
0.6
9.22
0.12
0
1.41
0.05
-0.8
0
-0.04
0
0.01

> <PUBCHEM_SHAPE_SELFOVERLAP>
436.39

> <PUBCHEM_SHAPE_VOLUME>
124.4

> <PUBCHEM_COORDINATE_TYPE>
2
5
10

$$$$

