6239
  -OEChem-06261201122D

 62 62  0     1  0  0  0  0  0999 V2000
    4.3647    0.6305    0.0000 Cl  0  0  0  0  0  0  0  0  0  0  0  0
    0.0000    5.6096    0.0000 Cl  0  0  0  0  0  0  0  0  0  0  0  0
    7.4294   11.2193    0.0000 Cl  0  0  0  0  0  0  0  0  0  0  0  0
   11.4249    2.6788    0.0000 O   0  0  0  0  0  0  0  0  0  0  0  0
    5.2967    7.1546    0.0000 N   0  0  0  0  0  0  0  0  0  0  0  0
    7.8948    3.6546    0.0000 N   0  0  0  0  0  0  0  0  0  0  0  0
    7.8948    0.6546    0.0000 N   0  0  0  0  0  0  0  0  0  0  0  0
    7.0288    4.1546    0.0000 C   0  0  3  0  0  0  0  0  0  0  0  0
    7.0288    5.1546    0.0000 C   0  0  0  0  0  0  0  0  0  0  0  0
    6.1628    5.6546    0.0000 C   0  0  0  0  0  0  0  0  0  0  0  0
    6.1628    6.6546    0.0000 C   0  0  0  0  0  0  0  0  0  0  0  0
    7.8948    2.6546    0.0000 C   0  0  0  0  0  0  0  0  0  0  0  0
    6.1628    3.6546    0.0000 C   0  0  0  0  0  0  0  0  0  0  0  0
    5.2967    8.1546    0.0000 C   0  0  0  0  0  0  0  0  0  0  0  0
    4.4307    6.6546    0.0000 C   0  0  0  0  0  0  0  0  0  0  0  0
    8.7608    2.1546    0.0000 C   0  0  0  0  0  0  0  0  0  0  0  0
    7.0288    2.1546    0.0000 C   0  0  0  0  0  0  0  0  0  0  0  0
    8.7608    1.1546    0.0000 C   0  0  0  0  0  0  0  0  0  0  0  0
    7.0288    1.1546    0.0000 C   0  0  0  0  0  0  0  0  0  0  0  0
    3.5647    7.1546    0.0000 C   0  0  0  0  0  0  0  0  0  0  0  0
    4.4307    8.6546    0.0000 C   0  0  0  0  0  0  0  0  0  0  0  0
    9.6548    2.6893    0.0000 C   0  0  0  0  0  0  0  0  0  0  0  0
    6.1348    2.6893    0.0000 C   0  0  0  0  0  0  0  0  0  0  0  0
    9.6548    0.6200    0.0000 C   0  0  0  0  0  0  0  0  0  0  0  0
    6.1348    0.6200    0.0000 C   0  0  0  0  0  0  0  0  0  0  0  0
   10.5609    2.1754    0.0000 C   0  0  0  0  0  0  0  0  0  0  0  0
    5.2288    2.1754    0.0000 C   0  0  0  0  0  0  0  0  0  0  0  0
   10.5609    1.1338    0.0000 C   0  0  0  0  0  0  0  0  0  0  0  0
    5.2288    1.1338    0.0000 C   0  0  0  0  0  0  0  0  0  0  0  0
   12.2929    2.1821    0.0000 C   0  0  0  0  0  0  0  0  0  0  0  0
    7.0288    3.3046    0.0000 H   0  0  0  0  0  0  0  0  0  0  0  0
    7.6394    5.0470    0.0000 H   0  0  0  0  0  0  0  0  0  0  0  0
    7.2408    5.7372    0.0000 H   0  0  0  0  0  0  0  0  0  0  0  0
    5.5522    5.7623    0.0000 H   0  0  0  0  0  0  0  0  0  0  0  0
    5.9507    5.0720    0.0000 H   0  0  0  0  0  0  0  0  0  0  0  0
    6.7734    6.5470    0.0000 H   0  0  0  0  0  0  0  0  0  0  0  0
    6.3748    7.2372    0.0000 H   0  0  0  0  0  0  0  0  0  0  0  0
    8.4317    3.9646    0.0000 H   0  0  0  0  0  0  0  0  0  0  0  0
    5.8528    4.1916    0.0000 H   0  0  0  0  0  0  0  0  0  0  0  0
    5.6258    3.3446    0.0000 H   0  0  0  0  0  0  0  0  0  0  0  0
    6.4728    3.1177    0.0000 H   0  0  0  0  0  0  0  0  0  0  0  0
    5.9073    8.0470    0.0000 H   0  0  0  0  0  0  0  0  0  0  0  0
    5.5088    8.7372    0.0000 H   0  0  0  0  0  0  0  0  0  0  0  0
    4.0322    6.1797    0.0000 H   0  0  0  0  0  0  0  0  0  0  0  0
    4.8292    6.1797    0.0000 H   0  0  0  0  0  0  0  0  0  0  0  0
    3.8747    7.6916    0.0000 H   0  0  0  0  0  0  0  0  0  0  0  0
    3.0278    7.4646    0.0000 H   0  0  0  0  0  0  0  0  0  0  0  0
    3.2547    6.6177    0.0000 H   0  0  0  0  0  0  0  0  0  0  0  0
    4.7407    9.1916    0.0000 H   0  0  0  0  0  0  0  0  0  0  0  0
    3.8938    8.9646    0.0000 H   0  0  0  0  0  0  0  0  0  0  0  0
    4.1207    8.1177    0.0000 H   0  0  0  0  0  0  0  0  0  0  0  0
    9.6476    3.3092    0.0000 H   0  0  0  0  0  0  0  0  0  0  0  0
    6.1420    3.3092    0.0000 H   0  0  0  0  0  0  0  0  0  0  0  0
    9.6476    0.0000    0.0000 H   0  0  0  0  0  0  0  0  0  0  0  0
    6.1420    0.0000    0.0000 H   0  0  0  0  0  0  0  0  0  0  0  0
    4.6931    2.4875    0.0000 H   0  0  0  0  0  0  0  0  0  0  0  0
   11.0966    0.8217    0.0000 H   0  0  0  0  0  0  0  0  0  0  0  0
   11.9850    1.6440    0.0000 H   0  0  0  0  0  0  0  0  0  0  0  0
   12.8310    1.8742    0.0000 H   0  0  0  0  0  0  0  0  0  0  0  0
   12.6008    2.7202    0.0000 H   0  0  0  0  0  0  0  0  0  0  0  0
    1.0000    5.6096    0.0000 H   0  0  0  0  0  0  0  0  0  0  0  0
    8.4294   11.2193    0.0000 H   0  0  0  0  0  0  0  0  0  0  0  0
  1 29  1  0  0  0  0
  2 61  1  0  0  0  0
  3 62  1  0  0  0  0
  4 26  1  0  0  0  0
  4 30  1  0  0  0  0
  5 11  1  0  0  0  0
  5 14  1  0  0  0  0
  5 15  1  0  0  0  0
  6  8  1  0  0  0  0
  6 12  1  0  0  0  0
  6 38  1  0  0  0  0
  7 18  2  0  0  0  0
  7 19  1  0  0  0  0
  8  9  1  0  0  0  0
  8 13  1  0  0  0  0
  8 31  1  0  0  0  0
  9 10  1  0  0  0  0
  9 32  1  0  0  0  0
  9 33  1  0  0  0  0
 10 11  1  0  0  0  0
 10 34  1  0  0  0  0
 10 35  1  0  0  0  0
 11 36  1  0  0  0  0
 11 37  1  0  0  0  0
 12 16  2  0  0  0  0
 12 17  1  0  0  0  0
 13 39  1  0  0  0  0
 13 40  1  0  0  0  0
 13 41  1  0  0  0  0
 14 21  1  0  0  0  0
 14 42  1  0  0  0  0
 14 43  1  0  0  0  0
 15 20  1  0  0  0  0
 15 44  1  0  0  0  0
 15 45  1  0  0  0  0
 16 18  1  0  0  0  0
 16 22  1  0  0  0  0
 17 19  2  0  0  0  0
 17 23  1  0  0  0  0
 18 24  1  0  0  0  0
 19 25  1  0  0  0  0
 20 46  1  0  0  0  0
 20 47  1  0  0  0  0
 20 48  1  0  0  0  0
 21 49  1  0  0  0  0
 21 50  1  0  0  0  0
 21 51  1  0  0  0  0
 22 26  2  0  0  0  0
 22 52  1  0  0  0  0
 23 27  2  0  0  0  0
 23 53  1  0  0  0  0
 24 28  2  0  0  0  0
 24 54  1  0  0  0  0
 25 29  2  0  0  0  0
 25 55  1  0  0  0  0
 26 28  1  0  0  0  0
 27 29  1  0  0  0  0
 27 56  1  0  0  0  0
 28 57  1  0  0  0  0
 30 58  1  0  0  0  0
 30 59  1  0  0  0  0
 30 60  1  0  0  0  0
M  END
> <PUBCHEM_COMPOUND_CID>
6239

> <PUBCHEM_COMPOUND_CANONICALIZED>
1

> <PUBCHEM_CACTVS_COMPLEXITY>
461

> <PUBCHEM_CACTVS_HBOND_ACCEPTOR>
4

> <PUBCHEM_CACTVS_HBOND_DONOR>
3

> <PUBCHEM_CACTVS_ROTATABLE_BOND>
9

> <PUBCHEM_CACTVS_SUBSKEYS>
AAADcfB7IAAGAAAAAAAAAAAAAAAAAAAAAAA8YIAAAAAAAACx/AAAHgIQAAAADC7BniYyxvPIFACgAyRiRACCiCAhJyAImKA+bpgMJuLF89uENChk0BHI6AewwPAOBEABAAICAAAIgAIABAQAAAAAAAAAAA==

> <PUBCHEM_IUPAC_OPENEYE_NAME>
N4-(6-chloro-2-methoxy-acridin-9-yl)-N1,N1-diethyl-pentane-1,4-diamine dihydrochloride

> <PUBCHEM_IUPAC_CAS_NAME>
N4-(6-chloro-2-methoxy-9-acridinyl)-N1,N1-diethylpentane-1,4-diamine dihydrochloride

> <PUBCHEM_IUPAC_NAME>
4-N-(6-chloro-2-methoxyacridin-9-yl)-1-N,1-N-diethylpentane-1,4-diamine dihydrochloride

> <PUBCHEM_IUPAC_SYSTEMATIC_NAME>
N4-(6-chloranyl-2-methoxy-acridin-9-yl)-N1,N1-diethyl-pentane-1,4-diamine dihydrochloride

> <PUBCHEM_IUPAC_TRADITIONAL_NAME>
4-[(6-chloro-2-methoxy-acridin-9-yl)amino]pentyl-diethyl-amine dihydrochloride

> <PUBCHEM_IUPAC_INCHI>
InChI=1S/C23H30ClN3O.2ClH/c1-5-27(6-2)13-7-8-16(3)25-23-19-11-9-17(24)14-22(19)26-21-12-10-18(28-4)15-20(21)23;;/h9-12,14-16H,5-8,13H2,1-4H3,(H,25,26);2*1H

> <PUBCHEM_IUPAC_INCHIKEY>
UDKVBVICMUEIKS-UHFFFAOYSA-N

> <PUBCHEM_EXACT_MASS>
471.161096

> <PUBCHEM_MOLECULAR_FORMULA>
C23H32Cl3N3O

> <PUBCHEM_MOLECULAR_WEIGHT>
472.87868

> <PUBCHEM_OPENEYE_CAN_SMILES>
CCN(CC)CCCC(C)NC1=C2C=C(C=CC2=NC3=C1C=CC(=C3)Cl)OC.Cl.Cl

> <PUBCHEM_OPENEYE_ISO_SMILES>
CCN(CC)CCCC(C)NC1=C2C=C(C=CC2=NC3=C1C=CC(=C3)Cl)OC.Cl.Cl

> <PUBCHEM_CACTVS_TPSA>
37.4

> <PUBCHEM_MONOISOTOPIC_WEIGHT>
471.161096

> <PUBCHEM_TOTAL_CHARGE>
0

> <PUBCHEM_HEAVY_ATOM_COUNT>
30

> <PUBCHEM_ATOM_DEF_STEREO_COUNT>
0

> <PUBCHEM_ATOM_UDEF_STEREO_COUNT>
1

> <PUBCHEM_BOND_DEF_STEREO_COUNT>
0

> <PUBCHEM_BOND_UDEF_STEREO_COUNT>
0

> <PUBCHEM_ISOTOPIC_ATOM_COUNT>
0

> <PUBCHEM_COMPONENT_COUNT>
3

> <PUBCHEM_CACTVS_TAUTO_COUNT>
2

> <PUBCHEM_COORDINATE_TYPE>
1
5
255

> <PUBCHEM_BONDANNOTATIONS>
12  16  8
12  17  8
16  18  8
16  22  8
17  19  8
17  23  8
18  24  8
19  25  8
22  26  8
23  27  8
24  28  8
25  29  8
26  28  8
27  29  8
7  18  8
7  19  8
8  31  3

$$$$

