47205663
  -OEChem-06241222593D

 40 40  0     0  0  0  0  0  0999 V2000
    2.6894   -2.5040   -0.1195 O   0  0  0  0  0  0  0  0  0  0  0  0
    5.3821    1.4025    0.3107 O   0  0  0  0  0  0  0  0  0  0  0  0
   -3.7725   -0.4960    1.2856 O   0  0  0  0  0  0  0  0  0  0  0  0
   -1.0259    0.9499   -0.6483 O   0  0  0  0  0  0  0  0  0  0  0  0
   -3.2184   -0.5837   -0.9670 N   0  0  0  0  0  0  0  0  0  0  0  0
    0.3816   -0.9206   -0.4506 N   0  0  0  0  0  0  0  0  0  0  0  0
   -5.2935    0.4568   -0.3394 C   0  0  0  0  0  0  0  0  0  0  0  0
   -6.1994    0.8290    0.8307 C   0  0  0  0  0  0  0  0  0  0  0  0
   -1.9566   -1.2654   -0.8013 C   0  0  0  0  0  0  0  0  0  0  0  0
    1.6580   -0.3413   -0.2562 C   0  0  0  0  0  0  0  0  0  0  0  0
   -4.0290   -0.2534    0.1093 C   0  0  0  0  0  0  0  0  0  0  0  0
    2.7869   -1.1446   -0.0940 C   0  0  0  0  0  0  0  0  0  0  0  0
   -0.8319   -0.2611   -0.6265 C   0  0  0  0  0  0  0  0  0  0  0  0
   -7.4731    1.5088    0.3556 C   0  0  0  0  0  0  0  0  0  0  0  0
    1.7807    1.0479   -0.2279 C   0  0  0  0  0  0  0  0  0  0  0  0
    4.0383   -0.5585    0.0968 C   0  0  0  0  0  0  0  0  0  0  0  0
    4.1609    0.8307    0.1255 C   0  0  0  0  0  0  0  0  0  0  0  0
    3.0320    1.6340   -0.0368 C   0  0  0  0  0  0  0  0  0  0  0  0
    2.4553   -3.1593    1.1252 C   0  0  0  0  0  0  0  0  0  0  0  0
    5.4351    2.8283    0.3281 C   0  0  0  0  0  0  0  0  0  0  0  0
   -5.8284   -0.2040   -1.0321 H   0  0  0  0  0  0  0  0  0  0  0  0
   -5.0034    1.3595   -0.8904 H   0  0  0  0  0  0  0  0  0  0  0  0
   -5.6664    1.4964    1.5183 H   0  0  0  0  0  0  0  0  0  0  0  0
   -6.4621   -0.0698    1.4015 H   0  0  0  0  0  0  0  0  0  0  0  0
   -2.0004   -1.9242    0.0720 H   0  0  0  0  0  0  0  0  0  0  0  0
   -1.7772   -1.8607   -1.7018 H   0  0  0  0  0  0  0  0  0  0  0  0
   -3.5041   -0.3261   -1.9073 H   0  0  0  0  0  0  0  0  0  0  0  0
    0.3695   -1.9381   -0.4646 H   0  0  0  0  0  0  0  0  0  0  0  0
   -8.0464    0.8504   -0.3049 H   0  0  0  0  0  0  0  0  0  0  0  0
   -8.1061    1.7676    1.2101 H   0  0  0  0  0  0  0  0  0  0  0  0
   -7.2457    2.4301   -0.1901 H   0  0  0  0  0  0  0  0  0  0  0  0
    0.9580    1.7383   -0.3453 H   0  0  0  0  0  0  0  0  0  0  0  0
    4.9192   -1.1832    0.2224 H   0  0  0  0  0  0  0  0  0  0  0  0
    3.0571    2.7184   -0.0250 H   0  0  0  0  0  0  0  0  0  0  0  0
    2.3600   -4.2318    0.9348 H   0  0  0  0  0  0  0  0  0  0  0  0
    1.5289   -2.8027    1.5863 H   0  0  0  0  0  0  0  0  0  0  0  0
    3.2980   -2.9986    1.8050 H   0  0  0  0  0  0  0  0  0  0  0  0
    6.4813    3.1108    0.4852 H   0  0  0  0  0  0  0  0  0  0  0  0
    4.8632    3.2421    1.1656 H   0  0  0  0  0  0  0  0  0  0  0  0
    5.1302    3.2542   -0.6338 H   0  0  0  0  0  0  0  0  0  0  0  0
  1 12  1  0  0  0  0
  1 19  1  0  0  0  0
  2 17  1  0  0  0  0
  2 20  1  0  0  0  0
  3 11  2  0  0  0  0
  4 13  2  0  0  0  0
  5  9  1  0  0  0  0
  5 11  1  0  0  0  0
  5 27  1  0  0  0  0
  6 10  1  0  0  0  0
  6 13  1  0  0  0  0
  6 28  1  0  0  0  0
  7  8  1  0  0  0  0
  7 11  1  0  0  0  0
  7 21  1  0  0  0  0
  7 22  1  0  0  0  0
  8 14  1  0  0  0  0
  8 23  1  0  0  0  0
  8 24  1  0  0  0  0
  9 13  1  0  0  0  0
  9 25  1  0  0  0  0
  9 26  1  0  0  0  0
 10 12  2  0  0  0  0
 10 15  1  0  0  0  0
 12 16  1  0  0  0  0
 14 29  1  0  0  0  0
 14 30  1  0  0  0  0
 14 31  1  0  0  0  0
 15 18  2  0  0  0  0
 15 32  1  0  0  0  0
 16 17  2  0  0  0  0
 16 33  1  0  0  0  0
 17 18  1  0  0  0  0
 18 34  1  0  0  0  0
 19 35  1  0  0  0  0
 19 36  1  0  0  0  0
 19 37  1  0  0  0  0
 20 38  1  0  0  0  0
 20 39  1  0  0  0  0
 20 40  1  0  0  0  0
M  END
> <PUBCHEM_COMPOUND_CID>
47205663

> <PUBCHEM_CONFORMER_RMSD>
1

> <PUBCHEM_CONFORMER_DIVERSEORDER>
1
14
12
22
37
34
79
65
60
46
18
61
26
77
10
25
30
72
63
68
32
73
59
19
70
31
53
78
69
27
54
52
35
23
55
71
47
43
28
16
42
21
48
36
57
39
11
38
24
44
2
29
8
76
20
7
66
80
64
49
62
3
45
4
15
74
40
9
75
33
51
50
6
56
41
67
13
58
5
17

> <PUBCHEM_MMFF94_PARTIAL_CHARGES>
23
1 -0.36
10 0.12
11 0.57
12 0.08
13 0.57
15 -0.15
16 -0.15
17 0.08
18 -0.15
19 0.28
2 -0.36
20 0.28
27 0.37
28 0.37
3 -0.57
32 0.15
33 0.15
34 0.15
4 -0.57
5 -0.73
6 -0.55
7 0.06
9 0.36

> <PUBCHEM_EFFECTIVE_ROTOR_COUNT>
9

> <PUBCHEM_PHARMACOPHORE_FEATURES>
8
1 1 acceptor
1 14 hydrophobe
1 2 acceptor
1 3 acceptor
1 4 acceptor
1 5 donor
1 6 donor
6 10 12 15 16 17 18 rings

> <PUBCHEM_HEAVY_ATOM_COUNT>
20

> <PUBCHEM_ATOM_DEF_STEREO_COUNT>
0

> <PUBCHEM_ATOM_UDEF_STEREO_COUNT>
0

> <PUBCHEM_BOND_DEF_STEREO_COUNT>
0

> <PUBCHEM_BOND_UDEF_STEREO_COUNT>
0

> <PUBCHEM_ISOTOPIC_ATOM_COUNT>
0

> <PUBCHEM_COMPONENT_COUNT>
1

> <PUBCHEM_CACTVS_TAUTO_COUNT>
4

> <PUBCHEM_CONFORMER_ID>
02D04D1F00000001

> <PUBCHEM_MMFF94_ENERGY>
64.1231

> <PUBCHEM_FEATURE_SELFOVERLAP>
40.594

> <PUBCHEM_SHAPE_FINGERPRINT>
10354089 29 18410570682511582645
10670039 82 15864055603195811993
10912923 1 18114472223175280543
11089746 13 17603873273304558777
12107183 9 17760082222140004627
12236239 1 18040436585943187375
12596602 18 18261106357840741891
12788726 201 17313095389109735017
13167372 99 18188487016740928761
13533116 47 18129095796428198555
13675066 3 17917709124042271119
13785724 45 17613431568736021391
13878862 14 18263666089751299301
13955234 65 18271533099637495986
14251764 18 18335421249608955957
14341114 176 18341325682531201501
14347424 109 18270685406257674985
14790565 3 18051972524614311604
15048467 5 18187365411252710193
15475509 35 16558199331794574562
17349148 13 11455897978804512508
20157964 124 18335136536084466183
20281389 69 18339920528710534909
20511986 3 18113912550033726069
20645477 70 18337398235128278486
212847 35 17967254221579973387
21315763 191 12031783670122284385
21421861 104 18200325423718635234
23402655 69 18114186285363169302
23559900 14 17632005450838101902
268830 7 18336557096338244519
300161 21 17967535662075613309
312425 54 17703781557952713297
3178227 256 18272938250244662274
33824 294 18343586248325970458
34934 24 18261396615508367686
4073 2 18272365331229093611
4340502 62 17775286066575122930
465052 167 11455891368739178329
5104073 3 18270128915724460330
602551 16 16128369324941891226
621550 34 18131078151262425310
7495541 125 13326565246822583405
8272917 22 18408039641183730918

> <PUBCHEM_SHAPE_MULTIPOLES>
378.15
15.82
2.58
0.91
23.64
0.76
0.1
-10.6
3.71
-4.35
0.67
0.55
0.24
-0.52

> <PUBCHEM_SHAPE_SELFOVERLAP>
764.028

> <PUBCHEM_SHAPE_VOLUME>
220.7

> <PUBCHEM_COORDINATE_TYPE>
2
5
10

$$$$

