17395336
  -OEChem-06241222492D

 36 38  0     0  0  0  0  0  0999 V2000
    4.6783    0.3988    0.0000 S   0  0  0  0  0  0  0  0  0  0  0  0
   11.3497   -2.2036    0.0000 O   0  0  0  0  0  0  0  0  0  0  0  0
    6.7619    2.0696    0.0000 O   0  0  0  0  0  0  0  0  0  0  0  0
    7.7619   -1.3945    0.0000 O   0  0  0  0  0  0  0  0  0  0  0  0
    6.7619    0.3375    0.0000 N   0  0  0  0  0  0  0  0  0  0  0  0
    9.2619   -0.5285    0.0000 N   0  0  0  0  0  0  0  0  0  0  0  0
    3.7320    1.7036    0.0000 C   0  0  0  0  0  0  0  0  0  0  0  0
    3.7320    0.7035    0.0000 C   0  0  0  0  0  0  0  0  0  0  0  0
    5.2619    1.2035    0.0000 C   0  0  0  0  0  0  0  0  0  0  0  0
    4.6783    2.0083    0.0000 C   0  0  0  0  0  0  0  0  0  0  0  0
    7.7619    0.3375    0.0000 C   0  0  0  0  0  0  0  0  0  0  0  0
    9.7619   -1.3945    0.0000 C   0  0  0  0  0  0  0  0  0  0  0  0
    6.2619    1.2035    0.0000 C   0  0  0  0  0  0  0  0  0  0  0  0
    2.8660    2.2036    0.0000 C   0  0  0  0  0  0  0  0  0  0  0  0
    2.8660    0.2035    0.0000 C   0  0  0  0  0  0  0  0  0  0  0  0
    8.2619   -0.5285    0.0000 C   0  0  0  0  0  0  0  0  0  0  0  0
   10.7619   -1.3945    0.0000 C   0  0  0  0  0  0  0  0  0  0  0  0
    2.0000    1.7036    0.0000 C   0  0  0  0  0  0  0  0  0  0  0  0
    2.0000    0.7035    0.0000 C   0  0  0  0  0  0  0  0  0  0  0  0
   11.3497   -0.5855    0.0000 C   0  0  0  0  0  0  0  0  0  0  0  0
   12.3007   -0.8945    0.0000 C   0  0  0  0  0  0  0  0  0  0  0  0
   12.3007   -1.8945    0.0000 C   0  0  0  0  0  0  0  0  0  0  0  0
    4.8709    2.5976    0.0000 H   0  0  0  0  0  0  0  0  0  0  0  0
    8.3445    0.5496    0.0000 H   0  0  0  0  0  0  0  0  0  0  0  0
    7.6542    0.9481    0.0000 H   0  0  0  0  0  0  0  0  0  0  0  0
    9.1793   -1.6066    0.0000 H   0  0  0  0  0  0  0  0  0  0  0  0
    9.8695   -2.0051    0.0000 H   0  0  0  0  0  0  0  0  0  0  0  0
    2.8660    2.8236    0.0000 H   0  0  0  0  0  0  0  0  0  0  0  0
    6.4519   -0.1994    0.0000 H   0  0  0  0  0  0  0  0  0  0  0  0
    2.8660   -0.4165    0.0000 H   0  0  0  0  0  0  0  0  0  0  0  0
    9.5719    0.0084    0.0000 H   0  0  0  0  0  0  0  0  0  0  0  0
    1.4631    2.0136    0.0000 H   0  0  0  0  0  0  0  0  0  0  0  0
    1.4631    0.3935    0.0000 H   0  0  0  0  0  0  0  0  0  0  0  0
   11.1581    0.0041    0.0000 H   0  0  0  0  0  0  0  0  0  0  0  0
   12.8023   -0.5301    0.0000 H   0  0  0  0  0  0  0  0  0  0  0  0
   12.8023   -2.2590    0.0000 H   0  0  0  0  0  0  0  0  0  0  0  0
  1  8  1  0  0  0  0
  1  9  1  0  0  0  0
  2 17  1  0  0  0  0
  2 22  1  0  0  0  0
  3 13  2  0  0  0  0
  4 16  2  0  0  0  0
  5 11  1  0  0  0  0
  5 13  1  0  0  0  0
  5 29  1  0  0  0  0
  6 12  1  0  0  0  0
  6 16  1  0  0  0  0
  6 31  1  0  0  0  0
  7  8  1  0  0  0  0
  7 10  1  0  0  0  0
  7 14  2  0  0  0  0
  8 15  2  0  0  0  0
  9 10  2  0  0  0  0
  9 13  1  0  0  0  0
 10 23  1  0  0  0  0
 11 16  1  0  0  0  0
 11 24  1  0  0  0  0
 11 25  1  0  0  0  0
 12 17  1  0  0  0  0
 12 26  1  0  0  0  0
 12 27  1  0  0  0  0
 14 18  1  0  0  0  0
 14 28  1  0  0  0  0
 15 19  1  0  0  0  0
 15 30  1  0  0  0  0
 17 20  2  0  0  0  0
 18 19  2  0  0  0  0
 18 32  1  0  0  0  0
 19 33  1  0  0  0  0
 20 21  1  0  0  0  0
 20 34  1  0  0  0  0
 21 22  2  0  0  0  0
 21 35  1  0  0  0  0
 22 36  1  0  0  0  0
M  END
> <PUBCHEM_COMPOUND_CID>
17395336

> <PUBCHEM_COMPOUND_CANONICALIZED>
1

> <PUBCHEM_CACTVS_COMPLEXITY>
418

> <PUBCHEM_CACTVS_HBOND_ACCEPTOR>
4

> <PUBCHEM_CACTVS_HBOND_DONOR>
2

> <PUBCHEM_CACTVS_ROTATABLE_BOND>
5

> <PUBCHEM_CACTVS_SUBSKEYS>
AAADccB7MABAAAAAAAAAAAAAAAAAASJAAAAwAAAAAAAAAEgB/AAAHgQQAAAADATh2AYwBcLABEiMAqlSkACDCIAkKBBIiJmODMgOZjKktTuXOSjk1hG4qYeYmYKOAAAAAAAEAAAAAAAAAAgAAAAAAAAAAA==

> <PUBCHEM_IUPAC_OPENEYE_NAME>
N-[2-(2-furylmethylamino)-2-oxo-ethyl]benzothiophene-2-carboxamide

> <PUBCHEM_IUPAC_CAS_NAME>
N-[2-(2-furanylmethylamino)-2-oxoethyl]-1-benzothiophene-2-carboxamide

> <PUBCHEM_IUPAC_NAME>
N-[2-(furan-2-ylmethylamino)-2-oxoethyl]-1-benzothiophene-2-carboxamide

> <PUBCHEM_IUPAC_SYSTEMATIC_NAME>
N-[2-(furan-2-ylmethylamino)-2-oxidanylidene-ethyl]-1-benzothiophene-2-carboxamide

> <PUBCHEM_IUPAC_TRADITIONAL_NAME>
N-[2-(2-furfurylamino)-2-keto-ethyl]benzothiophene-2-carboxamide

> <PUBCHEM_IUPAC_INCHI>
InChI=1S/C16H14N2O3S/c19-15(17-9-12-5-3-7-21-12)10-18-16(20)14-8-11-4-1-2-6-13(11)22-14/h1-8H,9-10H2,(H,17,19)(H,18,20)

> <PUBCHEM_IUPAC_INCHIKEY>
ZQIFRXLGKBNOHF-UHFFFAOYSA-N

> <PUBCHEM_XLOGP3_AA>
2.5

> <PUBCHEM_EXACT_MASS>
314.072513

> <PUBCHEM_MOLECULAR_FORMULA>
C16H14N2O3S

> <PUBCHEM_MOLECULAR_WEIGHT>
314.35896

> <PUBCHEM_OPENEYE_CAN_SMILES>
C1=CC=C2C(=C1)C=C(S2)C(=O)NCC(=O)NCC3=CC=CO3

> <PUBCHEM_OPENEYE_ISO_SMILES>
C1=CC=C2C(=C1)C=C(S2)C(=O)NCC(=O)NCC3=CC=CO3

> <PUBCHEM_CACTVS_TPSA>
99.6

> <PUBCHEM_MONOISOTOPIC_WEIGHT>
314.072513

> <PUBCHEM_TOTAL_CHARGE>
0

> <PUBCHEM_HEAVY_ATOM_COUNT>
22

> <PUBCHEM_ATOM_DEF_STEREO_COUNT>
0

> <PUBCHEM_ATOM_UDEF_STEREO_COUNT>
0

> <PUBCHEM_BOND_DEF_STEREO_COUNT>
0

> <PUBCHEM_BOND_UDEF_STEREO_COUNT>
0

> <PUBCHEM_ISOTOPIC_ATOM_COUNT>
0

> <PUBCHEM_COMPONENT_COUNT>
1

> <PUBCHEM_CACTVS_TAUTO_COUNT>
4

> <PUBCHEM_COORDINATE_TYPE>
1
5
255

> <PUBCHEM_BONDANNOTATIONS>
1  8  8
1  9  8
14  18  8
15  19  8
17  20  8
18  19  8
2  17  8
2  22  8
20  21  8
21  22  8
7  10  8
7  14  8
7  8  8
8  15  8
9  10  8

$$$$

