4289
  -OEChem-06261200013D

 24 24  0     0  0  0  0  0  0999 V2000
    4.9230   -0.4779   -0.4813 Cl  0  0  0  0  0  0  0  0  0  0  0  0
   -1.3137    1.6056    0.7114 O   0  0  0  0  0  0  0  0  0  0  0  0
   -1.7430   -0.6408    0.3296 N   0  0  0  0  0  0  0  0  0  0  0  0
   -5.2770   -0.1949   -0.6935 N   0  0  0  0  0  0  0  0  0  0  0  0
   -3.1764   -0.5689    0.5007 C   0  0  0  0  0  0  0  0  0  0  0  0
   -3.8294   -0.2761   -0.8422 C   0  0  0  0  0  0  0  0  0  0  0  0
    0.5250    0.2352    0.2221 C   0  0  0  0  0  0  0  0  0  0  0  0
   -0.8932    0.4652    0.4474 C   0  0  0  0  0  0  0  0  0  0  0  0
    1.3358    1.2745   -0.2338 C   0  0  0  0  0  0  0  0  0  0  0  0
    1.0740   -1.0247    0.4606 C   0  0  0  0  0  0  0  0  0  0  0  0
    2.6959    1.0539   -0.4512 C   0  0  0  0  0  0  0  0  0  0  0  0
    2.4341   -1.2452    0.2431 C   0  0  0  0  0  0  0  0  0  0  0  0
    3.2450   -0.2059   -0.2128 C   0  0  0  0  0  0  0  0  0  0  0  0
   -3.4128    0.2105    1.2335 H   0  0  0  0  0  0  0  0  0  0  0  0
   -3.5079   -1.5337    0.8993 H   0  0  0  0  0  0  0  0  0  0  0  0
   -3.5843   -1.0647   -1.5626 H   0  0  0  0  0  0  0  0  0  0  0  0
   -3.4536    0.6671   -1.2552 H   0  0  0  0  0  0  0  0  0  0  0  0
   -1.3707   -1.5408    0.0459 H   0  0  0  0  0  0  0  0  0  0  0  0
    0.9267    2.2621   -0.4303 H   0  0  0  0  0  0  0  0  0  0  0  0
    0.4860   -1.8527    0.8453 H   0  0  0  0  0  0  0  0  0  0  0  0
    3.3157    1.8727   -0.8077 H   0  0  0  0  0  0  0  0  0  0  0  0
    2.8501   -2.2302    0.4394 H   0  0  0  0  0  0  0  0  0  0  0  0
   -5.6957    0.0506   -1.5896 H   0  0  0  0  0  0  0  0  0  0  0  0
   -5.5147    0.5597   -0.0509 H   0  0  0  0  0  0  0  0  0  0  0  0
  1 13  1  0  0  0  0
  2  8  2  0  0  0  0
  3  5  1  0  0  0  0
  3  8  1  0  0  0  0
  3 18  1  0  0  0  0
  4  6  1  0  0  0  0
  4 23  1  0  0  0  0
  4 24  1  0  0  0  0
  5  6  1  0  0  0  0
  5 14  1  0  0  0  0
  5 15  1  0  0  0  0
  6 16  1  0  0  0  0
  6 17  1  0  0  0  0
  7  8  1  0  0  0  0
  7  9  2  0  0  0  0
  7 10  1  0  0  0  0
  9 11  1  0  0  0  0
  9 19  1  0  0  0  0
 10 12  2  0  0  0  0
 10 20  1  0  0  0  0
 11 13  2  0  0  0  0
 11 21  1  0  0  0  0
 12 13  1  0  0  0  0
 12 22  1  0  0  0  0
M  END
> <PUBCHEM_COMPOUND_CID>
4289

> <PUBCHEM_CONFORMER_RMSD>
0.6

> <PUBCHEM_CONFORMER_DIVERSEORDER>
1
4
8
9
6
7
3
5
2

> <PUBCHEM_MMFF94_PARTIAL_CHARGES>
20
1 -0.18
10 -0.15
11 -0.15
12 -0.15
13 0.18
18 0.37
19 0.15
2 -0.57
20 0.15
21 0.15
22 0.15
23 0.36
24 0.36
3 -0.73
4 -0.99
5 0.3
6 0.27
7 0.09
8 0.54
9 -0.15

> <PUBCHEM_EFFECTIVE_ROTOR_COUNT>
4

> <PUBCHEM_PHARMACOPHORE_FEATURES>
5
1 2 acceptor
1 3 donor
1 4 cation
1 4 donor
6 7 9 10 11 12 13 rings

> <PUBCHEM_HEAVY_ATOM_COUNT>
13

> <PUBCHEM_ATOM_DEF_STEREO_COUNT>
0

> <PUBCHEM_ATOM_UDEF_STEREO_COUNT>
0

> <PUBCHEM_BOND_DEF_STEREO_COUNT>
0

> <PUBCHEM_BOND_UDEF_STEREO_COUNT>
0

> <PUBCHEM_ISOTOPIC_ATOM_COUNT>
0

> <PUBCHEM_COMPONENT_COUNT>
1

> <PUBCHEM_CACTVS_TAUTO_COUNT>
2

> <PUBCHEM_CONFORMER_ID>
000010C100000001

> <PUBCHEM_MMFF94_ENERGY>
20.9621

> <PUBCHEM_FEATURE_SELFOVERLAP>
25.371

> <PUBCHEM_SHAPE_FINGERPRINT>
11062470 55 15554446292883512146
11401426 45 18343023268270445522
11471102 20 18342176644084962420
11806522 49 18408884031991033290
12500047 106 15985099682893362402
13690532 89 18411698807601978530
14251717 144 18412545414006309742
14576447 43 18408890628654988542
14911166 2 18272086093529170286
14943859 89 14620796007200549393
14993402 34 18412821391725464494
15757776 16 18343866640891586866
16945 1 18341878685334960754
18186145 218 17847065463091785289
200 152 18334577953500770749
20201158 50 18343580745998000307
20645477 70 18272936063046271443
21119208 17 18413389825930077719
21501925 9 18411704305244305882
22485316 2 16226044509209709495
23402539 116 18040715900134739949
23402655 69 18271531982792439813
23557571 272 17095518534741807440
23559900 14 18337954485533695192
2748010 2 17908688550042891082
2871803 45 18342738546219487198
4047638 21 12463569590935465214
4072396 5 17988378017840952066
42 15 6338959970682090879

> <PUBCHEM_SHAPE_MULTIPOLES>
253.57
8.96
1.29
0.83
5.17
0.23
0.05
-1.79
2.97
-0.51
-0.14
0.35
0.02
-0.21

> <PUBCHEM_SHAPE_SELFOVERLAP>
508.891

> <PUBCHEM_SHAPE_VOLUME>
150.4

> <PUBCHEM_COORDINATE_TYPE>
2
5
10

$$$$

