11699
  -OEChem-06261206003D

 17 16  0     0  0  0  0  0  0999 V2000
    1.7930    1.1566    0.0140 O   0  0  0  0  0  0  0  0  0  0  0  0
   -1.7124    1.2676   -0.0019 O   0  0  0  0  0  0  0  0  0  0  0  0
   -0.0094   -0.4826    0.0139 C   0  0  0  0  0  0  0  0  0  0  0  0
    1.4283   -0.1492   -0.4182 C   0  0  0  0  0  0  0  0  0  0  0  0
   -0.1513   -0.4627    1.5411 C   0  0  0  0  0  0  0  0  0  0  0  0
   -0.3987   -1.8653   -0.5244 C   0  0  0  0  0  0  0  0  0  0  0  0
   -0.9495    0.5355   -0.6246 C   0  0  0  0  0  0  0  0  0  0  0  0
    2.1502   -0.8655   -0.0102 H   0  0  0  0  0  0  0  0  0  0  0  0
    1.5230   -0.1654   -1.5097 H   0  0  0  0  0  0  0  0  0  0  0  0
    0.0239    0.5362    1.9554 H   0  0  0  0  0  0  0  0  0  0  0  0
    0.5566   -1.1535    2.0123 H   0  0  0  0  0  0  0  0  0  0  0  0
   -1.1615   -0.7597    1.8465 H   0  0  0  0  0  0  0  0  0  0  0  0
   -0.3156   -1.9069   -1.6166 H   0  0  0  0  0  0  0  0  0  0  0  0
    0.2449   -2.6481   -0.1081 H   0  0  0  0  0  0  0  0  0  0  0  0
   -1.4367   -2.1106   -0.2707 H   0  0  0  0  0  0  0  0  0  0  0  0
   -0.9134    0.5864   -1.7278 H   0  0  0  0  0  0  0  0  0  0  0  0
    1.9334    1.1216    0.9751 H   0  0  0  0  0  0  0  0  0  0  0  0
  1  4  1  0  0  0  0
  1 17  1  0  0  0  0
  2  7  2  0  0  0  0
  3  4  1  0  0  0  0
  3  5  1  0  0  0  0
  3  6  1  0  0  0  0
  3  7  1  0  0  0  0
  4  8  1  0  0  0  0
  4  9  1  0  0  0  0
  5 10  1  0  0  0  0
  5 11  1  0  0  0  0
  5 12  1  0  0  0  0
  6 13  1  0  0  0  0
  6 14  1  0  0  0  0
  6 15  1  0  0  0  0
  7 16  1  0  0  0  0
M  END
> <PUBCHEM_COMPOUND_CID>
11699

> <PUBCHEM_CONFORMER_RMSD>
0.4

> <PUBCHEM_CONFORMER_DIVERSEORDER>
1
6
5
2
3
4
7

> <PUBCHEM_MMFF94_PARTIAL_CHARGES>
7
1 -0.68
16 0.06
17 0.4
2 -0.57
3 0.06
4 0.28
7 0.45

> <PUBCHEM_EFFECTIVE_ROTOR_COUNT>
2

> <PUBCHEM_PHARMACOPHORE_FEATURES>
4
1 1 acceptor
1 1 donor
1 2 acceptor
3 3 5 6 hydrophobe

> <PUBCHEM_HEAVY_ATOM_COUNT>
7

> <PUBCHEM_ATOM_DEF_STEREO_COUNT>
0

> <PUBCHEM_ATOM_UDEF_STEREO_COUNT>
0

> <PUBCHEM_BOND_DEF_STEREO_COUNT>
0

> <PUBCHEM_BOND_UDEF_STEREO_COUNT>
0

> <PUBCHEM_ISOTOPIC_ATOM_COUNT>
0

> <PUBCHEM_COMPONENT_COUNT>
1

> <PUBCHEM_CACTVS_TAUTO_COUNT>
1

> <PUBCHEM_CONFORMER_ID>
00002DB300000001

> <PUBCHEM_MMFF94_ENERGY>
13.5163

> <PUBCHEM_FEATURE_SELFOVERLAP>
20.297

> <PUBCHEM_SHAPE_FINGERPRINT>
137420 1 12492403046201906527
20096714 4 18340491174190062588
21040471 1 18410014351065906236
29004967 10 17401199474717997499
5084963 1 17774717666265835893
5943 1 13971392450582259907

> <PUBCHEM_SHAPE_MULTIPOLES>
132.32
1.76
1.56
1.09
0.46
0.39
-0.5
-0.88
0.22
-0.34
0.26
-0.1
0.2
0.02

> <PUBCHEM_SHAPE_SELFOVERLAP>
242.746

> <PUBCHEM_SHAPE_VOLUME>
84.9

> <PUBCHEM_COORDINATE_TYPE>
2
5
10

$$$$

