17395667
  -OEChem-06241222513D

 34 36  0     0  0  0  0  0  0999 V2000
   -5.5985    2.8289    0.0014 Cl  0  0  0  0  0  0  0  0  0  0  0  0
   -6.9358    0.1829    0.0029 F   0  0  0  0  0  0  0  0  0  0  0  0
    1.1969    0.3484   -0.0007 O   0  0  0  0  0  0  0  0  0  0  0  0
    3.9234   -2.6842    0.0003 O   0  0  0  0  0  0  0  0  0  0  0  0
   -0.9569   -2.4460   -0.0005 O   0  0  0  0  0  0  0  0  0  0  0  0
   -1.3989   -0.1212   -0.0022 N   0  0  0  0  0  0  0  0  0  0  0  0
    3.5239   -0.3528    0.0012 C   0  0  0  0  0  0  0  0  0  0  0  0
    2.5392    0.6361    0.0002 C   0  0  0  0  0  0  0  0  0  0  0  0
    4.8759   -0.0022    0.0017 C   0  0  0  0  0  0  0  0  0  0  0  0
    5.2365    1.3458    0.0007 C   0  0  0  0  0  0  0  0  0  0  0  0
    0.8235   -0.9790   -0.0001 C   0  0  0  0  0  0  0  0  0  0  0  0
    3.1134   -1.7675    0.0014 C   0  0  0  0  0  0  0  0  0  0  0  0
    2.9030    1.9829   -0.0006 C   0  0  0  0  0  0  0  0  0  0  0  0
    4.2528    2.3361   -0.0005 C   0  0  0  0  0  0  0  0  0  0  0  0
    1.6590   -2.0249    0.0007 C   0  0  0  0  0  0  0  0  0  0  0  0
   -0.6124   -1.2641   -0.0015 C   0  0  0  0  0  0  0  0  0  0  0  0
    6.6781    1.7305   -0.0006 C   0  0  0  0  0  0  0  0  0  0  0  0
   -2.8113   -0.0389   -0.0022 C   0  0  0  0  0  0  0  0  0  0  0  0
   -3.4377    1.2075   -0.0015 C   0  0  0  0  0  0  0  0  0  0  0  0
   -3.5774   -1.2046   -0.0013 C   0  0  0  0  0  0  0  0  0  0  0  0
   -4.8303    1.2881    0.0002 C   0  0  0  0  0  0  0  0  0  0  0  0
   -4.9699   -1.1240    0.0003 C   0  0  0  0  0  0  0  0  0  0  0  0
   -5.5963    0.1222    0.0009 C   0  0  0  0  0  0  0  0  0  0  0  0
    5.6472   -0.7680    0.0043 H   0  0  0  0  0  0  0  0  0  0  0  0
    2.1437    2.7600   -0.0012 H   0  0  0  0  0  0  0  0  0  0  0  0
    4.5259    3.3881    0.0003 H   0  0  0  0  0  0  0  0  0  0  0  0
    1.3488   -3.0632    0.0008 H   0  0  0  0  0  0  0  0  0  0  0  0
    7.0516    1.7899    1.0265 H   0  0  0  0  0  0  0  0  0  0  0  0
    7.2799    1.0006   -0.5526 H   0  0  0  0  0  0  0  0  0  0  0  0
    6.8292    2.7014   -0.4848 H   0  0  0  0  0  0  0  0  0  0  0  0
   -0.9186    0.7766   -0.0024 H   0  0  0  0  0  0  0  0  0  0  0  0
   -2.8390    2.1159   -0.0018 H   0  0  0  0  0  0  0  0  0  0  0  0
   -3.1586   -2.2017   -0.0017 H   0  0  0  0  0  0  0  0  0  0  0  0
   -5.5676   -2.0308    0.0011 H   0  0  0  0  0  0  0  0  0  0  0  0
  1 21  1  0  0  0  0
  2 23  1  0  0  0  0
  3  8  1  0  0  0  0
  3 11  1  0  0  0  0
  4 12  2  0  0  0  0
  5 16  2  0  0  0  0
  6 16  1  0  0  0  0
  6 18  1  0  0  0  0
  6 31  1  0  0  0  0
  7  8  2  0  0  0  0
  7  9  1  0  0  0  0
  7 12  1  0  0  0  0
  8 13  1  0  0  0  0
  9 10  2  0  0  0  0
  9 24  1  0  0  0  0
 10 14  1  0  0  0  0
 10 17  1  0  0  0  0
 11 15  2  0  0  0  0
 11 16  1  0  0  0  0
 12 15  1  0  0  0  0
 13 14  2  0  0  0  0
 13 25  1  0  0  0  0
 14 26  1  0  0  0  0
 15 27  1  0  0  0  0
 17 28  1  0  0  0  0
 17 29  1  0  0  0  0
 17 30  1  0  0  0  0
 18 19  2  0  0  0  0
 18 20  1  0  0  0  0
 19 21  1  0  0  0  0
 19 32  1  0  0  0  0
 20 22  2  0  0  0  0
 20 33  1  0  0  0  0
 21 23  2  0  0  0  0
 22 23  1  0  0  0  0
 22 34  1  0  0  0  0
M  END
> <PUBCHEM_COMPOUND_CID>
17395667

> <PUBCHEM_CONFORMER_RMSD>
0.6

> <PUBCHEM_CONFORMER_DIVERSEORDER>
1
7
10
4
3
11
9
2
8
6
5
12
14
13

> <PUBCHEM_MMFF94_PARTIAL_CHARGES>
31
1 -0.18
10 -0.14
11 0.09
12 0.47
13 -0.15
14 -0.15
15 -0.14
16 0.62
17 0.14
18 0.12
19 -0.15
2 -0.19
20 -0.15
21 0.18
22 -0.15
23 0.19
24 0.15
25 0.15
26 0.15
27 0.15
3 -0.16
31 0.37
32 0.15
33 0.15
34 0.15
4 -0.57
5 -0.57
6 -0.55
7 0.09
8 0.08
9 -0.15

> <PUBCHEM_EFFECTIVE_ROTOR_COUNT>
3

> <PUBCHEM_PHARMACOPHORE_FEATURES>
7
1 3 acceptor
1 4 acceptor
1 5 acceptor
1 6 donor
6 18 19 20 21 22 23 rings
6 3 7 8 11 12 15 rings
6 7 8 9 10 13 14 rings

> <PUBCHEM_HEAVY_ATOM_COUNT>
23

> <PUBCHEM_ATOM_DEF_STEREO_COUNT>
0

> <PUBCHEM_ATOM_UDEF_STEREO_COUNT>
0

> <PUBCHEM_BOND_DEF_STEREO_COUNT>
0

> <PUBCHEM_BOND_UDEF_STEREO_COUNT>
0

> <PUBCHEM_ISOTOPIC_ATOM_COUNT>
0

> <PUBCHEM_COMPONENT_COUNT>
1

> <PUBCHEM_CACTVS_TAUTO_COUNT>
2

> <PUBCHEM_CONFORMER_ID>
01096FD300000001

> <PUBCHEM_MMFF94_ENERGY>
63.8697

> <PUBCHEM_FEATURE_SELFOVERLAP>
35.549

> <PUBCHEM_SHAPE_FINGERPRINT>
10 15 18131630054206611233
10411042 1 17978511163987851474
10595046 47 18408608054683491239
10835480 77 18341618152898854021
11578080 2 13900753248873912724
12107183 9 17832703852483864097
12236239 1 17967814946329047575
12403259 415 18059860614135979087
12633257 1 15984820394007545021
12730499 353 18412255125867685578
12788726 201 17385717040833433408
12838862 33 18337409149183593536
13073987 5 18342174475279816211
13167372 99 18410293648404695960
13402501 40 18412265016897968597
13785724 45 17760931044943710722
14341114 176 18411975888684499743
14528608 73 18408041797114544319
14933364 13 18410570691244071861
15196674 1 18410855494857158785
15419008 145 18200326527836849952
15475509 35 16343153544841178194
15961568 22 18272368667785939965
16992752 21 17548415260728293970
17844677 252 18337102484085918131
18335252 98 18340482267393612211
18608769 82 18266175037915242595
19611394 137 17772457998483482747
20157964 124 18410012147832209191
21033648 144 18272096015272889799
21033650 10 14635134755629619771
21315764 268 18271249416920455253
21421861 104 17917163805182807914
22289505 5 18261110807474047092
23402655 69 18333453140110020798
23559900 14 18191588773012551127
245318 6 17127878050969271020
2838139 119 18335707096124084068
3004659 81 18411698833403437442
335352 9 18410571787225669238
3411729 13 18342177757183313498
34797466 226 17967243209294395735
3545911 37 18411135814118466672
4073 2 18131345284953438283
4214541 1 18338799026475182789
4325135 7 18334297522786786319
4340502 62 17203611480045465346
474 4 18131068190974750588
5104073 3 18273210937121939755
513532 50 18188196681119683860
633830 44 18339650030926609975
77779 3 18410574007154016171
8272917 22 18408321103655289294
90127 26 18270389598890902859

> <PUBCHEM_SHAPE_MULTIPOLES>
445.34
16.58
2.84
0.6
8.34
0.16
0
9.28
-0.01
-0.95
0
-0.01
0.03
0

> <PUBCHEM_SHAPE_SELFOVERLAP>
973.268

> <PUBCHEM_SHAPE_VOLUME>
242.3

> <PUBCHEM_COORDINATE_TYPE>
2
5
10

$$$$

