3655
  -OEChem-06251223343D

 30 32  0     1  0  0  0  0  0999 V2000
    2.6641    1.5876   -1.0540 O   0  0  0  0  0  0  0  0  0  0  0  0
   -0.3055   -1.6456   -0.0383 N   0  0  0  0  0  0  0  0  0  0  0  0
   -0.0052    2.5281    0.2504 N   0  0  0  0  0  0  0  0  0  0  0  0
    2.4043    1.0069    0.2234 C   0  0  2  0  0  0  0  0  0  0  0  0
    3.5327    0.0347    0.5797 C   0  0  0  0  0  0  0  0  0  0  0  0
    3.4153   -1.2509   -0.2353 C   0  0  0  0  0  0  0  0  0  0  0  0
    1.0548    0.3444    0.1567 C   0  0  0  0  0  0  0  0  0  0  0  0
    2.0978   -1.9557    0.0780 C   0  0  0  0  0  0  0  0  0  0  0  0
    0.9055   -1.0364    0.0457 C   0  0  0  0  0  0  0  0  0  0  0  0
   -0.1095    1.1148    0.1585 C   0  0  0  0  0  0  0  0  0  0  0  0
   -1.3686    0.5093    0.0660 C   0  0  0  0  0  0  0  0  0  0  0  0
   -1.4207   -0.8931   -0.0321 C   0  0  0  0  0  0  0  0  0  0  0  0
   -2.5531    1.2658    0.0684 C   0  0  0  0  0  0  0  0  0  0  0  0
   -2.6712   -1.4983   -0.1230 C   0  0  0  0  0  0  0  0  0  0  0  0
   -3.7909    0.6365   -0.0244 C   0  0  0  0  0  0  0  0  0  0  0  0
   -3.8497   -0.7481   -0.1199 C   0  0  0  0  0  0  0  0  0  0  0  0
    2.4130    1.8035    0.9760 H   0  0  0  0  0  0  0  0  0  0  0  0
    3.4881   -0.2121    1.6481 H   0  0  0  0  0  0  0  0  0  0  0  0
    4.5081    0.4961    0.3867 H   0  0  0  0  0  0  0  0  0  0  0  0
    4.2532   -1.9193   -0.0076 H   0  0  0  0  0  0  0  0  0  0  0  0
    3.4715   -1.0196   -1.3064 H   0  0  0  0  0  0  0  0  0  0  0  0
    2.1522   -2.3981    1.0805 H   0  0  0  0  0  0  0  0  0  0  0  0
    1.9490   -2.7765   -0.6332 H   0  0  0  0  0  0  0  0  0  0  0  0
    3.5173    2.0508   -0.9978 H   0  0  0  0  0  0  0  0  0  0  0  0
   -2.5661    2.3482    0.1399 H   0  0  0  0  0  0  0  0  0  0  0  0
   -0.8173    3.1239    0.2939 H   0  0  0  0  0  0  0  0  0  0  0  0
    0.8987    2.9778    0.2127 H   0  0  0  0  0  0  0  0  0  0  0  0
   -2.7435   -2.5817   -0.1992 H   0  0  0  0  0  0  0  0  0  0  0  0
   -4.7045    1.2232   -0.0223 H   0  0  0  0  0  0  0  0  0  0  0  0
   -4.8108   -1.2487   -0.1926 H   0  0  0  0  0  0  0  0  0  0  0  0
  1  4  1  0  0  0  0
  1 24  1  0  0  0  0
  2  9  2  0  0  0  0
  2 12  1  0  0  0  0
  3 10  1  0  0  0  0
  3 26  1  0  0  0  0
  3 27  1  0  0  0  0
  4  5  1  0  0  0  0
  4  7  1  0  0  0  0
  4 17  1  0  0  0  0
  5  6  1  0  0  0  0
  5 18  1  0  0  0  0
  5 19  1  0  0  0  0
  6  8  1  0  0  0  0
  6 20  1  0  0  0  0
  6 21  1  0  0  0  0
  7  9  1  0  0  0  0
  7 10  2  0  0  0  0
  8  9  1  0  0  0  0
  8 22  1  0  0  0  0
  8 23  1  0  0  0  0
 10 11  1  0  0  0  0
 11 12  1  0  0  0  0
 11 13  2  0  0  0  0
 12 14  2  0  0  0  0
 13 15  1  0  0  0  0
 13 25  1  0  0  0  0
 14 16  1  0  0  0  0
 14 28  1  0  0  0  0
 15 16  2  0  0  0  0
 15 29  1  0  0  0  0
 16 30  1  0  0  0  0
M  END
> <PUBCHEM_COMPOUND_CID>
3655

> <PUBCHEM_CONFORMER_RMSD>
0.4

> <PUBCHEM_CONFORMER_DIVERSEORDER>
2
1

> <PUBCHEM_MMFF94_PARTIAL_CHARGES>
20
1 -0.68
10 0.1
12 0.31
13 -0.15
14 -0.15
15 -0.15
16 -0.15
2 -0.62
24 0.4
25 0.15
26 0.4
27 0.4
28 0.15
29 0.15
3 -0.9
30 0.15
4 0.42
7 -0.14
8 0.14
9 0.17

> <PUBCHEM_EFFECTIVE_ROTOR_COUNT>
0.8

> <PUBCHEM_PHARMACOPHORE_FEATURES>
8
1 1 acceptor
1 1 donor
1 2 acceptor
1 3 cation
1 3 donor
6 11 12 13 14 15 16 rings
6 2 7 9 10 11 12 rings
6 4 5 6 7 8 9 rings

> <PUBCHEM_HEAVY_ATOM_COUNT>
16

> <PUBCHEM_ATOM_DEF_STEREO_COUNT>
0

> <PUBCHEM_ATOM_UDEF_STEREO_COUNT>
1

> <PUBCHEM_BOND_DEF_STEREO_COUNT>
0

> <PUBCHEM_BOND_UDEF_STEREO_COUNT>
0

> <PUBCHEM_ISOTOPIC_ATOM_COUNT>
0

> <PUBCHEM_COMPONENT_COUNT>
1

> <PUBCHEM_CACTVS_TAUTO_COUNT>
5

> <PUBCHEM_CONFORMER_ID>
00000E4700000002

> <PUBCHEM_MMFF94_ENERGY>
56.2589

> <PUBCHEM_FEATURE_SELFOVERLAP>
40.65

> <PUBCHEM_SHAPE_FINGERPRINT>
10062212 137 18410022039189449147
10411042 1 15527425099763924389
10608611 8 18410299124561773273
10618630 7 18409731789546748610
10922523 26 18411140268047032119
10967382 1 18410013217089012435
10980938 120 18409729551652723994
11132069 177 18409455790516171009
11471102 20 18410580590821792975
11806522 49 18337679603152546127
12032990 46 18409444799737311779
12382932 28 18335987531554782642
13140716 1 18337672026487241027
13221675 6 18409169896192380795
13296908 3 18410292518954845531
13380535 76 18411140220808069211
14144814 61 18408887330262205187
14325111 11 18410293609839427057
15196674 1 18409731772145372387
15219456 202 18408044030428992227
15442244 35 18193839477303218170
15536298 74 18333452053805028650
16945 1 18192997006604129355
17804303 29 18190180268657665322
18186145 218 17917434237012629271
19422 9 18410007732631942795
19591789 44 15964823258437672571
200 152 17968108508092640199
20510252 161 18187367683042419017
20559304 39 18410856521259572448
20645476 183 17915164724933144334
20645477 70 18408608088879868471
21267235 1 18410003347349475499
21501502 16 18410572877297938575
21501925 9 18411146835184019890
221490 88 18341323397165839274
2255824 54 18131630084793744890
2334 1 18409729538889102403
23402539 116 18260279558939116046
23463225 33 18411420626353357594
23552423 10 18342738533033963434
23559900 14 18263369251676245666
2748010 2 18409168826587262103
335352 9 18049724319244400983
34934 24 18337121128148728859
5104073 3 18409450301527069923
528886 8 18409174319750135635
537710 114 18409444773993868737
53812653 166 18260555480502111536
69090 78 18260838106978547631
7364860 26 18262803956301415736
8809292 202 18343298158809551811
9709674 26 18410290298277795174

> <PUBCHEM_SHAPE_MULTIPOLES>
313.44
6.39
2.13
0.69
1.2
0.28
0.04
-0.78
0.15
-0.37
0.07
-0.23
0.09
-0.19

> <PUBCHEM_SHAPE_SELFOVERLAP>
694.509

> <PUBCHEM_SHAPE_VOLUME>
167.1

> <PUBCHEM_COORDINATE_TYPE>
2
5
10

$$$$

