17396013
  -OEChem-06241222533D

 44 47  0     0  0  0  0  0  0999 V2000
   -6.8834   -4.1181   -0.5404 Br  0  0  0  0  0  0  0  0  0  0  0  0
   -5.4556   -1.4020   -1.3853 S   0  0  0  0  0  0  0  0  0  0  0  0
    1.2048    3.8742    0.3047 O   0  0  0  0  0  0  0  0  0  0  0  0
    3.6100    0.8428   -1.2811 O   0  0  0  0  0  0  0  0  0  0  0  0
   -3.0243    1.2755    0.0974 N   0  0  0  0  0  0  0  0  0  0  0  0
   -0.3120    2.1236    0.4728 N   0  0  0  0  0  0  0  0  0  0  0  0
    2.6680    1.8644   -1.2776 N   0  0  0  0  0  0  0  0  0  0  0  0
   -1.9122    0.4273   -0.3538 C   0  0  0  0  0  0  0  0  0  0  0  0
   -2.6643    2.6962   -0.0165 C   0  0  0  0  0  0  0  0  0  0  0  0
   -0.6465    0.6939    0.4647 C   0  0  0  0  0  0  0  0  0  0  0  0
   -1.4255    3.0048    0.8224 C   0  0  0  0  0  0  0  0  0  0  0  0
   -4.2344    0.9888   -0.6721 C   0  0  0  0  0  0  0  0  0  0  0  0
    0.9590    2.6704    0.2358 C   0  0  0  0  0  0  0  0  0  0  0  0
   -4.9016   -0.2775   -0.2188 C   0  0  0  0  0  0  0  0  0  0  0  0
    2.0319    1.7439   -0.1088 C   0  0  0  0  0  0  0  0  0  0  0  0
   -5.1527   -0.7012    1.0676 C   0  0  0  0  0  0  0  0  0  0  0  0
    2.5247    0.6748    0.6593 C   0  0  0  0  0  0  0  0  0  0  0  0
   -5.8086   -1.9657    1.0963 C   0  0  0  0  0  0  0  0  0  0  0  0
    3.5149    0.1414   -0.1226 C   0  0  0  0  0  0  0  0  0  0  0  0
   -6.0339   -2.4603   -0.1696 C   0  0  0  0  0  0  0  0  0  0  0  0
    4.4313   -0.9527    0.0179 C   0  0  0  0  0  0  0  0  0  0  0  0
    4.4127   -1.7353    1.1725 C   0  0  0  0  0  0  0  0  0  0  0  0
    5.3421   -1.2337   -1.0003 C   0  0  0  0  0  0  0  0  0  0  0  0
    5.3051   -2.7987    1.3089 C   0  0  0  0  0  0  0  0  0  0  0  0
    6.2345   -2.2972   -0.8642 C   0  0  0  0  0  0  0  0  0  0  0  0
    6.2159   -3.0796    0.2906 C   0  0  0  0  0  0  0  0  0  0  0  0
   -1.6980    0.6066   -1.4162 H   0  0  0  0  0  0  0  0  0  0  0  0
   -2.1630   -0.6343   -0.2457 H   0  0  0  0  0  0  0  0  0  0  0  0
   -3.4868    3.3249    0.3451 H   0  0  0  0  0  0  0  0  0  0  0  0
   -2.4776    2.9645   -1.0648 H   0  0  0  0  0  0  0  0  0  0  0  0
   -0.7895    0.3891    1.5083 H   0  0  0  0  0  0  0  0  0  0  0  0
    0.1529    0.0845    0.0440 H   0  0  0  0  0  0  0  0  0  0  0  0
   -1.1457    4.0553    0.6937 H   0  0  0  0  0  0  0  0  0  0  0  0
   -1.6353    2.8514    1.8883 H   0  0  0  0  0  0  0  0  0  0  0  0
   -4.9733    1.7864   -0.5100 H   0  0  0  0  0  0  0  0  0  0  0  0
   -4.0268    0.9831   -1.7504 H   0  0  0  0  0  0  0  0  0  0  0  0
   -4.8846   -0.1358    1.9512 H   0  0  0  0  0  0  0  0  0  0  0  0
    2.2060    0.3497    1.6392 H   0  0  0  0  0  0  0  0  0  0  0  0
   -6.0970   -2.4782    2.0055 H   0  0  0  0  0  0  0  0  0  0  0  0
    3.7149   -1.5410    1.9828 H   0  0  0  0  0  0  0  0  0  0  0  0
    5.3879   -0.6476   -1.9147 H   0  0  0  0  0  0  0  0  0  0  0  0
    5.2909   -3.4082    2.2077 H   0  0  0  0  0  0  0  0  0  0  0  0
    6.9440   -2.5165   -1.6568 H   0  0  0  0  0  0  0  0  0  0  0  0
    6.9107   -3.9075    0.3967 H   0  0  0  0  0  0  0  0  0  0  0  0
  1 20  1  0  0  0  0
  2 14  1  0  0  0  0
  2 20  1  0  0  0  0
  3 13  2  0  0  0  0
  4  7  1  0  0  0  0
  4 19  1  0  0  0  0
  5  8  1  0  0  0  0
  5  9  1  0  0  0  0
  5 12  1  0  0  0  0
  6 10  1  0  0  0  0
  6 11  1  0  0  0  0
  6 13  1  0  0  0  0
  7 15  2  0  0  0  0
  8 10  1  0  0  0  0
  8 27  1  0  0  0  0
  8 28  1  0  0  0  0
  9 11  1  0  0  0  0
  9 29  1  0  0  0  0
  9 30  1  0  0  0  0
 10 31  1  0  0  0  0
 10 32  1  0  0  0  0
 11 33  1  0  0  0  0
 11 34  1  0  0  0  0
 12 14  1  0  0  0  0
 12 35  1  0  0  0  0
 12 36  1  0  0  0  0
 13 15  1  0  0  0  0
 14 16  2  0  0  0  0
 15 17  1  0  0  0  0
 16 18  1  0  0  0  0
 16 37  1  0  0  0  0
 17 19  2  0  0  0  0
 17 38  1  0  0  0  0
 18 20  2  0  0  0  0
 18 39  1  0  0  0  0
 19 21  1  0  0  0  0
 21 22  2  0  0  0  0
 21 23  1  0  0  0  0
 22 24  1  0  0  0  0
 22 40  1  0  0  0  0
 23 25  2  0  0  0  0
 23 41  1  0  0  0  0
 24 26  2  0  0  0  0
 24 42  1  0  0  0  0
 25 26  1  0  0  0  0
 25 43  1  0  0  0  0
 26 44  1  0  0  0  0
M  END
> <PUBCHEM_COMPOUND_CID>
17396013

> <PUBCHEM_CONFORMER_RMSD>
1

> <PUBCHEM_CONFORMER_DIVERSEORDER>
1
24
74
30
63
14
31
32
57
21
58
38
87
34
48
15
72
92
78
60
54
46
13
8
47
22
12
65
85
88
67
89
64
44
27
16
19
75
53
77
35
84
28
18
7
66
82
68
43
80
71
93
11
69
39
86
17
23
79
62
59
55
29
70
45
37
90
91
61
41
10
56
83
26
73
81
52
50
33
4
76
42
5
9
49
51
40
2
6
25
20
3
36

> <PUBCHEM_MMFF94_PARTIAL_CHARGES>
34
1 -0.06
10 0.3
11 0.3
12 0.45
13 0.72
14 -0.14
15 0.2
16 -0.15
17 -0.15
18 -0.15
19 0.09
2 -0.08
20 0.1
21 0.05
22 -0.15
23 -0.15
24 -0.15
25 -0.15
26 -0.15
3 -0.57
37 0.15
38 0.15
39 0.15
4 -0.02
40 0.15
41 0.15
42 0.15
43 0.15
44 0.15
5 -0.81
6 -0.66
7 -0.41
8 0.27
9 0.27

> <PUBCHEM_EFFECTIVE_ROTOR_COUNT>
6.2

> <PUBCHEM_PHARMACOPHORE_FEATURES>
8
1 1 hydrophobe
1 3 acceptor
1 5 cation
1 7 acceptor
5 2 14 16 18 20 rings
5 4 7 15 17 19 rings
6 21 22 23 24 25 26 rings
6 5 6 8 9 10 11 rings

> <PUBCHEM_HEAVY_ATOM_COUNT>
26

> <PUBCHEM_ATOM_DEF_STEREO_COUNT>
0

> <PUBCHEM_ATOM_UDEF_STEREO_COUNT>
0

> <PUBCHEM_BOND_DEF_STEREO_COUNT>
0

> <PUBCHEM_BOND_UDEF_STEREO_COUNT>
0

> <PUBCHEM_ISOTOPIC_ATOM_COUNT>
0

> <PUBCHEM_COMPONENT_COUNT>
1

> <PUBCHEM_CACTVS_TAUTO_COUNT>
1

> <PUBCHEM_CONFORMER_ID>
0109712D00000001

> <PUBCHEM_MMFF94_ENERGY>
49.8129

> <PUBCHEM_FEATURE_SELFOVERLAP>
40.596

> <PUBCHEM_SHAPE_FINGERPRINT>
10050765 1 18409449197795308017
10074138 170 17025138881732789177
10622 236 17843413027383487698
10693767 8 18193004716804311247
11497681 19 18268987765301476478
117089 54 18410568453688274475
11796584 16 18120654892885238132
11809386 21 18268713981371281513
11963148 33 17831304900374758167
12107183 9 18188756315717594265
12166972 35 18060131050840997782
12422481 6 17168141260681947567
12633257 1 15719689696530814368
12661589 4 18339366262358248602
12760667 363 18410290320274377595
12975358 362 8934174722692008359
13540713 5 18265030548873692496
1361 4 18338797806114276775
1361 87 17774713165741951795
13690498 29 18060137695635712045
13782708 43 18060135435855108215
13911852 28 18337111143135541259
13955234 65 18044941155833162953
14211702 104 18411420622153440058
14251740 57 18336271162884663978
14251751 18 18333735731751783187
14251764 30 18410012096704188227
14347332 77 18413388756736389581
14866123 147 18264765635960411769
14951699 99 7348888905559507251
15019793 15 17905890280145700043
17138139 8 18059294378807052178
17492 89 18410014308311879657
18393751 57 17322694971766785129
19319366 153 18050001087180425692
20028762 73 18335420179540529526
20058555 10 9367353634901671775
20567600 247 18413108355216984859
20691028 202 9439135260158357191
20775438 99 17981054011326323427
20843269 155 18339365266094315994
208703 8 18409174311171413247
21130935 74 18119245057666075539
21585483 132 18264785272298220535
21682296 61 18409165494320543711
229767 8 18197772211907186571
23522609 53 18049685660677344929
23559900 14 18341059544925448609
23569914 152 12174245291520243554
23569914 2 13612532690653703326
24983565 74 17974296422180765503
270888 7 8899530674018788254
2748736 6 9583519789421715495
2835820 82 18121782726066096823
2838139 119 10663518389008510368
3004659 81 18202281442114219052
32027 91 18335710399533929857
34797466 226 16557628505050343333
3862424 121 17487880226151922899
439807 62 18343579638598005743
44062 13 18341898549543517189
465052 167 18188202105294171525
474113 269 18114754729477269639
484985 159 18336545023623278593
50009960 94 18198368258661748098
5104073 3 18040149630388358137
5718773 13 18409171012673219047
5874358 3 16879088343376882143
6058803 2 18196348498978679508
6201320 77 17630296741856060603
7062679 13 18411700980549364897
7808743 9 9655278337866560052
7970288 3 18410014368124871746
8863177 126 18409730642558580059

> <PUBCHEM_SHAPE_MULTIPOLES>
518.18
19.18
4.94
1.19
5.73
0.31
-0.04
27.39
-1.44
1.14
0.41
-0.2
0.4
-1.22

> <PUBCHEM_SHAPE_SELFOVERLAP>
1092.075

> <PUBCHEM_SHAPE_VOLUME>
296

> <PUBCHEM_COORDINATE_TYPE>
2
5
10

$$$$

