12019
  -OEChem-06261206233D

 19 18  0     0  0  0  0  0  0999 V2000
    0.0260    1.4312   -0.2230 N   0  0  0  0  0  0  0  0  0  0  0  0
   -0.0026    0.0451    0.2477 C   0  0  0  0  0  0  0  0  0  0  0  0
    1.2556   -0.6991   -0.2361 C   0  0  0  0  0  0  0  0  0  0  0  0
   -1.2678   -0.6880   -0.2368 C   0  0  0  0  0  0  0  0  0  0  0  0
    2.5554   -0.0508    0.2252 C   0  0  0  0  0  0  0  0  0  0  0  0
   -2.5665   -0.0383    0.2232 C   0  0  0  0  0  0  0  0  0  0  0  0
   -0.0048    0.0568    1.3449 H   0  0  0  0  0  0  0  0  0  0  0  0
    1.2287   -1.7280    0.1437 H   0  0  0  0  0  0  0  0  0  0  0  0
    1.2620   -0.7674   -1.3314 H   0  0  0  0  0  0  0  0  0  0  0  0
   -1.2466   -1.7192    0.1373 H   0  0  0  0  0  0  0  0  0  0  0  0
   -1.2728   -0.7512   -1.3324 H   0  0  0  0  0  0  0  0  0  0  0  0
    2.7265    0.9129   -0.2636 H   0  0  0  0  0  0  0  0  0  0  0  0
    2.5582    0.0999    1.3093 H   0  0  0  0  0  0  0  0  0  0  0  0
    3.4025   -0.6973   -0.0270 H   0  0  0  0  0  0  0  0  0  0  0  0
   -2.5770    0.0936    1.3097 H   0  0  0  0  0  0  0  0  0  0  0  0
   -2.7219    0.9364   -0.2487 H   0  0  0  0  0  0  0  0  0  0  0  0
   -3.4171   -0.6722   -0.0482 H   0  0  0  0  0  0  0  0  0  0  0  0
    0.8276    1.9181    0.1747 H   0  0  0  0  0  0  0  0  0  0  0  0
   -0.7923    1.9316    0.1201 H   0  0  0  0  0  0  0  0  0  0  0  0
  1  2  1  0  0  0  0
  1 18  1  0  0  0  0
  1 19  1  0  0  0  0
  2  3  1  0  0  0  0
  2  4  1  0  0  0  0
  2  7  1  0  0  0  0
  3  5  1  0  0  0  0
  3  8  1  0  0  0  0
  3  9  1  0  0  0  0
  4  6  1  0  0  0  0
  4 10  1  0  0  0  0
  4 11  1  0  0  0  0
  5 12  1  0  0  0  0
  5 13  1  0  0  0  0
  5 14  1  0  0  0  0
  6 15  1  0  0  0  0
  6 16  1  0  0  0  0
  6 17  1  0  0  0  0
M  END
> <PUBCHEM_COMPOUND_CID>
12019

> <PUBCHEM_CONFORMER_RMSD>
0.4

> <PUBCHEM_CONFORMER_DIVERSEORDER>
2
4
6
1
5
3
7

> <PUBCHEM_MMFF94_PARTIAL_CHARGES>
4
1 -0.99
18 0.36
19 0.36
2 0.27

> <PUBCHEM_EFFECTIVE_ROTOR_COUNT>
2

> <PUBCHEM_PHARMACOPHORE_FEATURES>
4
1 1 cation
1 1 donor
1 5 hydrophobe
1 6 hydrophobe

> <PUBCHEM_HEAVY_ATOM_COUNT>
6

> <PUBCHEM_ATOM_DEF_STEREO_COUNT>
0

> <PUBCHEM_ATOM_UDEF_STEREO_COUNT>
0

> <PUBCHEM_BOND_DEF_STEREO_COUNT>
0

> <PUBCHEM_BOND_UDEF_STEREO_COUNT>
0

> <PUBCHEM_ISOTOPIC_ATOM_COUNT>
0

> <PUBCHEM_COMPONENT_COUNT>
1

> <PUBCHEM_CACTVS_TAUTO_COUNT>
1

> <PUBCHEM_CONFORMER_ID>
00002EF300000002

> <PUBCHEM_MMFF94_ENERGY>
-4.5266

> <PUBCHEM_FEATURE_SELFOVERLAP>
20.297

> <PUBCHEM_SHAPE_FINGERPRINT>
139733 1 9079115561534802718
14390081 3 17095246907993016866
16714656 1 18408603686089665606
20096714 4 18266173933712572957
29004967 10 18342733013916501235
5460574 1 10375872974106350155

> <PUBCHEM_SHAPE_MULTIPOLES>
118.5
3.43
1.04
0.66
0.04
0.28
-0.01
-0.32
-0.37
-0.01
0.11
0
-0.01
0

> <PUBCHEM_SHAPE_SELFOVERLAP>
201.377

> <PUBCHEM_SHAPE_VOLUME>
81.1

> <PUBCHEM_COORDINATE_TYPE>
2
5
10

$$$$

