17395303
  -OEChem-06241222492D

 36 38  0     0  0  0  0  0  0999 V2000
    2.0000    0.2327    0.0000 F   0  0  0  0  0  0  0  0  0  0  0  0
    2.0000   -1.7673    0.0000 F   0  0  0  0  0  0  0  0  0  0  0  0
   11.5542   -0.3020    0.0000 O   0  0  0  0  0  0  0  0  0  0  0  0
   11.5542    1.7673    0.0000 O   0  0  0  0  0  0  0  0  0  0  0  0
    8.0622   -0.2673    0.0000 O   0  0  0  0  0  0  0  0  0  0  0  0
    6.3301   -1.2673    0.0000 O   0  0  0  0  0  0  0  0  0  0  0  0
    5.4641    0.2327    0.0000 N   0  0  0  0  0  0  0  0  0  0  0  0
   10.6603    0.2327    0.0000 C   0  0  0  0  0  0  0  0  0  0  0  0
   10.6603    1.2327    0.0000 C   0  0  0  0  0  0  0  0  0  0  0  0
   12.4603    0.2119    0.0000 C   0  0  0  0  0  0  0  0  0  0  0  0
   12.4603    1.2535    0.0000 C   0  0  0  0  0  0  0  0  0  0  0  0
    9.7942   -0.2673    0.0000 C   0  0  0  0  0  0  0  0  0  0  0  0
    8.9282    0.2327    0.0000 C   0  0  0  0  0  0  0  0  0  0  0  0
    9.7942    1.7327    0.0000 C   0  0  0  0  0  0  0  0  0  0  0  0
    8.9282    1.2327    0.0000 C   0  0  0  0  0  0  0  0  0  0  0  0
    7.1962    0.2327    0.0000 C   0  0  0  0  0  0  0  0  0  0  0  0
    4.5981   -0.2673    0.0000 C   0  0  0  0  0  0  0  0  0  0  0  0
    6.3301   -0.2673    0.0000 C   0  0  0  0  0  0  0  0  0  0  0  0
    3.7320    0.2327    0.0000 C   0  0  0  0  0  0  0  0  0  0  0  0
    4.5981   -1.2673    0.0000 C   0  0  0  0  0  0  0  0  0  0  0  0
    2.8660   -0.2673    0.0000 C   0  0  0  0  0  0  0  0  0  0  0  0
    3.7320   -1.7673    0.0000 C   0  0  0  0  0  0  0  0  0  0  0  0
    2.8660   -1.2673    0.0000 C   0  0  0  0  0  0  0  0  0  0  0  0
   12.6693   -0.3718    0.0000 H   0  0  0  0  0  0  0  0  0  0  0  0
   13.0711    0.3179    0.0000 H   0  0  0  0  0  0  0  0  0  0  0  0
   13.0711    1.1474    0.0000 H   0  0  0  0  0  0  0  0  0  0  0  0
   12.6693    1.8372    0.0000 H   0  0  0  0  0  0  0  0  0  0  0  0
    9.7942   -0.8873    0.0000 H   0  0  0  0  0  0  0  0  0  0  0  0
    9.7942    2.3527    0.0000 H   0  0  0  0  0  0  0  0  0  0  0  0
    8.3913    1.5427    0.0000 H   0  0  0  0  0  0  0  0  0  0  0  0
    7.5947    0.7076    0.0000 H   0  0  0  0  0  0  0  0  0  0  0  0
    6.7976    0.7076    0.0000 H   0  0  0  0  0  0  0  0  0  0  0  0
    5.4641    0.8527    0.0000 H   0  0  0  0  0  0  0  0  0  0  0  0
    3.7320    0.8527    0.0000 H   0  0  0  0  0  0  0  0  0  0  0  0
    5.1350   -1.5773    0.0000 H   0  0  0  0  0  0  0  0  0  0  0  0
    3.7320   -2.3873    0.0000 H   0  0  0  0  0  0  0  0  0  0  0  0
  1 21  1  0  0  0  0
  2 23  1  0  0  0  0
  3  8  1  0  0  0  0
  3 10  1  0  0  0  0
  4  9  1  0  0  0  0
  4 11  1  0  0  0  0
  5 13  1  0  0  0  0
  5 16  1  0  0  0  0
  6 18  2  0  0  0  0
  7 17  1  0  0  0  0
  7 18  1  0  0  0  0
  7 33  1  0  0  0  0
  8  9  2  0  0  0  0
  8 12  1  0  0  0  0
  9 14  1  0  0  0  0
 10 11  1  0  0  0  0
 10 24  1  0  0  0  0
 10 25  1  0  0  0  0
 11 26  1  0  0  0  0
 11 27  1  0  0  0  0
 12 13  2  0  0  0  0
 12 28  1  0  0  0  0
 13 15  1  0  0  0  0
 14 15  2  0  0  0  0
 14 29  1  0  0  0  0
 15 30  1  0  0  0  0
 16 18  1  0  0  0  0
 16 31  1  0  0  0  0
 16 32  1  0  0  0  0
 17 19  2  0  0  0  0
 17 20  1  0  0  0  0
 19 21  1  0  0  0  0
 19 34  1  0  0  0  0
 20 22  2  0  0  0  0
 20 35  1  0  0  0  0
 21 23  2  0  0  0  0
 22 23  1  0  0  0  0
 22 36  1  0  0  0  0
M  END
> <PUBCHEM_COMPOUND_CID>
17395303

> <PUBCHEM_COMPOUND_CANONICALIZED>
1

> <PUBCHEM_CACTVS_COMPLEXITY>
412

> <PUBCHEM_CACTVS_HBOND_ACCEPTOR>
6

> <PUBCHEM_CACTVS_HBOND_DONOR>
1

> <PUBCHEM_CACTVS_ROTATABLE_BOND>
4

> <PUBCHEM_CACTVS_SUBSKEYS>
AAADccB6OYAAAAAAAAAAAAAAAAAAAAAAAAA0YIAAAAAAAACRQAAAHwAQAAAACAyhkAowxoLABACIACVSUAKCCAAhIgAIiABG7IgPJyLEsZ+HOCrl1BXa6AfQYAwAAQAACAAAQAACAAAQAACAAAAAAAAAAA==

> <PUBCHEM_IUPAC_OPENEYE_NAME>
N-(3,4-difluorophenyl)-2-(2,3-dihydro-1,4-benzodioxin-6-yloxy)acetamide

> <PUBCHEM_IUPAC_CAS_NAME>
N-(3,4-difluorophenyl)-2-(2,3-dihydro-1,4-benzodioxin-6-yloxy)acetamide

> <PUBCHEM_IUPAC_NAME>
N-(3,4-difluorophenyl)-2-(2,3-dihydro-1,4-benzodioxin-6-yloxy)acetamide

> <PUBCHEM_IUPAC_SYSTEMATIC_NAME>
N-[3,4-bis(fluoranyl)phenyl]-2-(2,3-dihydro-1,4-benzodioxin-6-yloxy)ethanamide

> <PUBCHEM_IUPAC_TRADITIONAL_NAME>
N-(3,4-difluorophenyl)-2-(2,3-dihydro-1,4-benzodioxin-6-yloxy)acetamide

> <PUBCHEM_IUPAC_INCHI>
InChI=1S/C16H13F2NO4/c17-12-3-1-10(7-13(12)18)19-16(20)9-23-11-2-4-14-15(8-11)22-6-5-21-14/h1-4,7-8H,5-6,9H2,(H,19,20)

> <PUBCHEM_IUPAC_INCHIKEY>
NWXHJJIVOKNXJH-UHFFFAOYSA-N

> <PUBCHEM_XLOGP3_AA>
2.7

> <PUBCHEM_EXACT_MASS>
321.081264

> <PUBCHEM_MOLECULAR_FORMULA>
C16H13F2NO4

> <PUBCHEM_MOLECULAR_WEIGHT>
321.275526

> <PUBCHEM_OPENEYE_CAN_SMILES>
C1COC2=C(O1)C=CC(=C2)OCC(=O)NC3=CC(=C(C=C3)F)F

> <PUBCHEM_OPENEYE_ISO_SMILES>
C1COC2=C(O1)C=CC(=C2)OCC(=O)NC3=CC(=C(C=C3)F)F

> <PUBCHEM_CACTVS_TPSA>
56.8

> <PUBCHEM_MONOISOTOPIC_WEIGHT>
321.081264

> <PUBCHEM_TOTAL_CHARGE>
0

> <PUBCHEM_HEAVY_ATOM_COUNT>
23

> <PUBCHEM_ATOM_DEF_STEREO_COUNT>
0

> <PUBCHEM_ATOM_UDEF_STEREO_COUNT>
0

> <PUBCHEM_BOND_DEF_STEREO_COUNT>
0

> <PUBCHEM_BOND_UDEF_STEREO_COUNT>
0

> <PUBCHEM_ISOTOPIC_ATOM_COUNT>
0

> <PUBCHEM_COMPONENT_COUNT>
1

> <PUBCHEM_CACTVS_TAUTO_COUNT>
3

> <PUBCHEM_COORDINATE_TYPE>
1
5
255

> <PUBCHEM_BONDANNOTATIONS>
12  13  8
13  15  8
14  15  8
17  19  8
17  20  8
19  21  8
20  22  8
21  23  8
22  23  8
8  12  8
8  9  8
9  14  8

$$$$

