11042
  -OEChem-06261205152D

 28 27  0     0  0  0  0  0  0999 V2000
    2.5260    4.3100    0.0000 I   0  0  0  0  0  0  0  0  0  0  0  0
    4.2581    1.3100    0.0000 S   0  0  0  0  0  0  0  0  0  0  0  0
    3.4254    8.6408    0.0000 Na  0  3  0  0  0  0  0  0  0  0  0  0
    4.2581    5.3100    0.0000 O   0  0  0  0  0  0  0  0  0  0  0  0
    4.2581    0.3100    0.0000 O   0  0  0  0  0  0  0  0  0  0  0  0
    5.2581    1.3100    0.0000 O   0  0  0  0  0  0  0  0  0  0  0  0
    3.2581    1.3100    0.0000 O   0  0  0  0  0  0  0  0  0  0  0  0
    6.0235    9.1408    0.0000 O   0  0  0  0  0  0  0  0  0  0  0  0
    4.2915    9.1408    0.0000 O   0  5  0  0  0  0  0  0  0  0  0  0
    5.1575    7.6408    0.0000 O   0  0  0  0  0  0  0  0  0  0  0  0
    6.0180    4.3447    0.0000 N   0  0  0  0  0  0  0  0  0  0  0  0
    5.1241    2.8100    0.0000 C   0  0  0  0  0  0  0  0  0  0  0  0
    4.2581    2.3100    0.0000 C   0  0  0  0  0  0  0  0  0  0  0  0
    5.1241    3.8100    0.0000 C   0  0  0  0  0  0  0  0  0  0  0  0
    3.3920    2.8100    0.0000 C   0  0  0  0  0  0  0  0  0  0  0  0
    4.2581    4.3100    0.0000 C   0  0  0  0  0  0  0  0  0  0  0  0
    6.0180    2.2753    0.0000 C   0  0  0  0  0  0  0  0  0  0  0  0
    3.3920    3.8100    0.0000 C   0  0  0  0  0  0  0  0  0  0  0  0
    6.9241    2.7892    0.0000 C   0  0  0  0  0  0  0  0  0  0  0  0
    6.9241    3.8308    0.0000 C   0  0  0  0  0  0  0  0  0  0  0  0
    5.1575    8.6408    0.0000 C   0  0  0  0  0  0  0  0  0  0  0  0
    2.8551    2.5000    0.0000 H   0  0  0  0  0  0  0  0  0  0  0  0
    6.0109    1.6554    0.0000 H   0  0  0  0  0  0  0  0  0  0  0  0
    7.4598    2.4771    0.0000 H   0  0  0  0  0  0  0  0  0  0  0  0
    7.4598    4.1429    0.0000 H   0  0  0  0  0  0  0  0  0  0  0  0
    3.7211    5.6200    0.0000 H   0  0  0  0  0  0  0  0  0  0  0  0
    3.7211    0.0000    0.0000 H   0  0  0  0  0  0  0  0  0  0  0  0
    6.5604    8.8308    0.0000 H   0  0  0  0  0  0  0  0  0  0  0  0
  1 18  1  0  0  0  0
  2  5  1  0  0  0  0
  2  6  2  0  0  0  0
  2  7  2  0  0  0  0
  2 13  1  0  0  0  0
  4 16  1  0  0  0  0
  4 26  1  0  0  0  0
  5 27  1  0  0  0  0
  8 21  1  0  0  0  0
  8 28  1  0  0  0  0
  9 21  1  0  0  0  0
 10 21  2  0  0  0  0
 11 14  1  0  0  0  0
 11 20  2  0  0  0  0
 12 13  1  0  0  0  0
 12 14  2  0  0  0  0
 12 17  1  0  0  0  0
 13 15  2  0  0  0  0
 14 16  1  0  0  0  0
 15 18  1  0  0  0  0
 15 22  1  0  0  0  0
 16 18  2  0  0  0  0
 17 19  2  0  0  0  0
 17 23  1  0  0  0  0
 19 20  1  0  0  0  0
 19 24  1  0  0  0  0
 20 25  1  0  0  0  0
M  CHG  2   3   1   9  -1
M  END
> <PUBCHEM_COMPOUND_CID>
11042

> <PUBCHEM_COMPOUND_CANONICALIZED>
1

> <PUBCHEM_CACTVS_COMPLEXITY>
380

> <PUBCHEM_CACTVS_HBOND_ACCEPTOR>
8

> <PUBCHEM_CACTVS_HBOND_DONOR>
3

> <PUBCHEM_CACTVS_ROTATABLE_BOND>
1

> <PUBCHEM_CACTVS_SUBSKEYS>
AAADcYByOCBAAgAAAAAAAAAAAAAAAAAAAAA8QAAAAAAAAACx8AAAHgQgCAAADAzD3gQ8z/IIEoKoAzRnTHTCgGAxYiAI2Dg9bJgKJuLSkZOEcAxkwBHY2AeQwLAOAIABACAGEAABAAIAQAwgAAAAAAAAAA==

> <PUBCHEM_IUPAC_OPENEYE_NAME>
sodium; hydrogen carbonate; 8-hydroxy-7-iodo-quinoline-5-sulfonic acid

> <PUBCHEM_IUPAC_CAS_NAME>
sodium; hydrogen carbonate; 8-hydroxy-7-iodo-5-quinolinesulfonic acid

> <PUBCHEM_IUPAC_NAME>
sodium; hydrogen carbonate; 8-hydroxy-7-iodoquinoline-5-sulfonic acid

> <PUBCHEM_IUPAC_SYSTEMATIC_NAME>
sodium; hydrogen carbonate; 7-iodanyl-8-oxidanyl-quinoline-5-sulfonic acid

> <PUBCHEM_IUPAC_TRADITIONAL_NAME>
sodium 8-hydroxy-7-iodo-quinoline-5-sulfonic acid bicarbonate

> <PUBCHEM_IUPAC_INCHI>
InChI=1S/C9H6INO4S.CH2O3.Na/c10-6-4-7(16(13,14)15)5-2-1-3-11-8(5)9(6)12;2-1(3)4;/h1-4,12H,(H,13,14,15);(H2,2,3,4);/q;;+1/p-1

> <PUBCHEM_IUPAC_INCHIKEY>
FNXKBSAUKFCXIK-UHFFFAOYSA-M

> <PUBCHEM_EXACT_MASS>
434.888565

> <PUBCHEM_MOLECULAR_FORMULA>
C10H7INNaO7S

> <PUBCHEM_MOLECULAR_WEIGHT>
435.124319

> <PUBCHEM_OPENEYE_CAN_SMILES>
C1=CC2=C(C(=C(C=C2S(=O)(=O)O)I)O)N=C1.C(=O)(O)[O-].[Na+]

> <PUBCHEM_OPENEYE_ISO_SMILES>
C1=CC2=C(C(=C(C=C2S(=O)(=O)O)I)O)N=C1.C(=O)(O)[O-].[Na+]

> <PUBCHEM_CACTVS_TPSA>
156

> <PUBCHEM_MONOISOTOPIC_WEIGHT>
434.888565

> <PUBCHEM_TOTAL_CHARGE>
0

> <PUBCHEM_HEAVY_ATOM_COUNT>
21

> <PUBCHEM_ATOM_DEF_STEREO_COUNT>
0

> <PUBCHEM_ATOM_UDEF_STEREO_COUNT>
0

> <PUBCHEM_BOND_DEF_STEREO_COUNT>
0

> <PUBCHEM_BOND_UDEF_STEREO_COUNT>
0

> <PUBCHEM_ISOTOPIC_ATOM_COUNT>
0

> <PUBCHEM_COMPONENT_COUNT>
3

> <PUBCHEM_CACTVS_TAUTO_COUNT>
3

> <PUBCHEM_COORDINATE_TYPE>
1
5
255

> <PUBCHEM_BONDANNOTATIONS>
11  14  8
11  20  8
12  13  8
12  14  8
12  17  8
13  15  8
14  16  8
15  18  8
16  18  8
17  19  8
19  20  8

$$$$

