7847027
  -OEChem-06241222483D

 50 52  0     0  0  0  0  0  0999 V2000
   -4.0940    2.1733    0.9000 S   0  0  0  0  0  0  0  0  0  0  0  0
   -3.3812   -1.7152    0.5504 O   0  0  0  0  0  0  0  0  0  0  0  0
   -4.5068   -2.7745   -1.1621 O   0  0  0  0  0  0  0  0  0  0  0  0
    6.1718   -0.8625    1.0637 O   0  0  0  0  0  0  0  0  0  0  0  0
   -1.0241   -0.9454    1.5871 O   0  0  0  0  0  0  0  0  0  0  0  0
   -3.0927    0.9186   -1.1188 N   0  0  0  0  0  0  0  0  0  0  0  0
    0.1003   -2.2143   -0.0430 N   0  0  0  0  0  0  0  0  0  0  0  0
    5.7952    0.7897   -0.5466 N   0  0  0  0  0  0  0  0  0  0  0  0
   -5.4574    0.3665   -0.6667 C   0  0  0  0  0  0  0  0  0  0  0  0
   -5.5543   -0.9713    0.0897 C   0  0  0  0  0  0  0  0  0  0  0  0
   -4.1846    1.0736   -0.4069 C   0  0  0  0  0  0  0  0  0  0  0  0
   -2.4462    2.4919    0.5047 C   0  0  0  0  0  0  0  0  0  0  0  0
   -2.0866    1.7257   -0.6081 C   0  0  0  0  0  0  0  0  0  0  0  0
   -4.4480   -1.9353   -0.2741 C   0  0  0  0  0  0  0  0  0  0  0  0
    4.0493   -0.7885    0.1856 C   0  0  0  0  0  0  0  0  0  0  0  0
    1.4291   -1.7338    0.0333 C   0  0  0  0  0  0  0  0  0  0  0  0
   -1.5372    3.3576    1.1340 C   0  0  0  0  0  0  0  0  0  0  0  0
   -0.7700    1.8316   -1.1067 C   0  0  0  0  0  0  0  0  0  0  0  0
    3.0666   -0.2576    1.0211 C   0  0  0  0  0  0  0  0  0  0  0  0
    3.7218   -1.7922   -0.7260 C   0  0  0  0  0  0  0  0  0  0  0  0
    1.7565   -0.7303    0.9450 C   0  0  0  0  0  0  0  0  0  0  0  0
    2.4118   -2.2650   -0.8022 C   0  0  0  0  0  0  0  0  0  0  0  0
   -2.2466   -2.5590    0.3290 C   0  0  0  0  0  0  0  0  0  0  0  0
   -0.2408    3.4437    0.6206 C   0  0  0  0  0  0  0  0  0  0  0  0
    0.1400    2.6914   -0.4852 C   0  0  0  0  0  0  0  0  0  0  0  0
    5.4151   -0.2956    0.2641 C   0  0  0  0  0  0  0  0  0  0  0  0
   -0.9928   -1.8010    0.7078 C   0  0  0  0  0  0  0  0  0  0  0  0
    4.8669    1.4283   -1.4771 C   0  0  0  0  0  0  0  0  0  0  0  0
    7.1391    1.3494   -0.5128 C   0  0  0  0  0  0  0  0  0  0  0  0
   -5.5342    0.1702   -1.7439 H   0  0  0  0  0  0  0  0  0  0  0  0
   -6.3203    0.9911   -0.4061 H   0  0  0  0  0  0  0  0  0  0  0  0
   -6.5084   -1.4594   -0.1419 H   0  0  0  0  0  0  0  0  0  0  0  0
   -5.5497   -0.8149    1.1755 H   0  0  0  0  0  0  0  0  0  0  0  0
   -1.8273    3.9476    1.9980 H   0  0  0  0  0  0  0  0  0  0  0  0
   -0.4610    1.2463   -1.9682 H   0  0  0  0  0  0  0  0  0  0  0  0
    3.3114    0.5260    1.7338 H   0  0  0  0  0  0  0  0  0  0  0  0
    4.4795   -2.2127   -1.3822 H   0  0  0  0  0  0  0  0  0  0  0  0
    1.0510   -0.2694    1.6219 H   0  0  0  0  0  0  0  0  0  0  0  0
    2.1700   -3.0472   -1.5170 H   0  0  0  0  0  0  0  0  0  0  0  0
   -2.1840   -2.8797   -0.7166 H   0  0  0  0  0  0  0  0  0  0  0  0
   -2.3275   -3.4371    0.9777 H   0  0  0  0  0  0  0  0  0  0  0  0
    0.4789    4.1068    1.0935 H   0  0  0  0  0  0  0  0  0  0  0  0
    1.1536    2.7690   -0.8690 H   0  0  0  0  0  0  0  0  0  0  0  0
   -0.0489   -2.9500   -0.7300 H   0  0  0  0  0  0  0  0  0  0  0  0
    4.7791    2.4848   -1.2051 H   0  0  0  0  0  0  0  0  0  0  0  0
    3.8689    0.9910   -1.4830 H   0  0  0  0  0  0  0  0  0  0  0  0
    5.2836    1.3519   -2.4861 H   0  0  0  0  0  0  0  0  0  0  0  0
    7.5829    1.2651   -1.5089 H   0  0  0  0  0  0  0  0  0  0  0  0
    7.7679    0.8174    0.2054 H   0  0  0  0  0  0  0  0  0  0  0  0
    7.0768    2.4023   -0.2235 H   0  0  0  0  0  0  0  0  0  0  0  0
  1 11  1  0  0  0  0
  1 12  1  0  0  0  0
  2 14  1  0  0  0  0
  2 23  1  0  0  0  0
  3 14  2  0  0  0  0
  4 26  2  0  0  0  0
  5 27  2  0  0  0  0
  6 11  2  0  0  0  0
  6 13  1  0  0  0  0
  7 16  1  0  0  0  0
  7 27  1  0  0  0  0
  7 44  1  0  0  0  0
  8 26  1  0  0  0  0
  8 28  1  0  0  0  0
  8 29  1  0  0  0  0
  9 10  1  0  0  0  0
  9 11  1  0  0  0  0
  9 30  1  0  0  0  0
  9 31  1  0  0  0  0
 10 14  1  0  0  0  0
 10 32  1  0  0  0  0
 10 33  1  0  0  0  0
 12 13  1  0  0  0  0
 12 17  2  0  0  0  0
 13 18  2  0  0  0  0
 15 19  2  0  0  0  0
 15 20  1  0  0  0  0
 15 26  1  0  0  0  0
 16 21  2  0  0  0  0
 16 22  1  0  0  0  0
 17 24  1  0  0  0  0
 17 34  1  0  0  0  0
 18 25  1  0  0  0  0
 18 35  1  0  0  0  0
 19 21  1  0  0  0  0
 19 36  1  0  0  0  0
 20 22  2  0  0  0  0
 20 37  1  0  0  0  0
 21 38  1  0  0  0  0
 22 39  1  0  0  0  0
 23 27  1  0  0  0  0
 23 40  1  0  0  0  0
 23 41  1  0  0  0  0
 24 25  2  0  0  0  0
 24 42  1  0  0  0  0
 25 43  1  0  0  0  0
 28 45  1  0  0  0  0
 28 46  1  0  0  0  0
 28 47  1  0  0  0  0
 29 48  1  0  0  0  0
 29 49  1  0  0  0  0
 29 50  1  0  0  0  0
M  END
> <PUBCHEM_COMPOUND_CID>
7847027

> <PUBCHEM_CONFORMER_RMSD>
1.4

> <PUBCHEM_CONFORMER_DIVERSEORDER>
1
3
43
59
21
40
27
9
14
51
6
42
24
50
4
20
53
15
58
2
35
45
49
39
22
52
44
47
13
37
55
29
7
34
61
8
12
11
25
26
16
36
60
28
23
48
57
38
10
17
18
19
30
41
33
54
56
32
5
31
46

> <PUBCHEM_MMFF94_PARTIAL_CHARGES>
38
1 -0.08
10 0.06
11 0.2
12 0.04
13 0.23
14 0.66
15 0.09
16 0.12
17 -0.15
18 -0.15
19 -0.15
2 -0.43
20 -0.15
21 -0.15
22 -0.15
23 0.34
24 -0.15
25 -0.15
26 0.54
27 0.57
28 0.3
29 0.3
3 -0.57
34 0.15
35 0.15
36 0.15
37 0.15
38 0.15
39 0.15
4 -0.57
42 0.15
43 0.15
44 0.37
5 -0.57
6 -0.57
7 -0.55
8 -0.66
9 0.18

> <PUBCHEM_EFFECTIVE_ROTOR_COUNT>
10

> <PUBCHEM_PHARMACOPHORE_FEATURES>
8
1 3 acceptor
1 4 acceptor
1 5 acceptor
1 6 acceptor
1 7 donor
5 1 6 11 12 13 rings
6 12 13 17 18 24 25 rings
6 15 16 19 20 21 22 rings

> <PUBCHEM_HEAVY_ATOM_COUNT>
29

> <PUBCHEM_ATOM_DEF_STEREO_COUNT>
0

> <PUBCHEM_ATOM_UDEF_STEREO_COUNT>
0

> <PUBCHEM_BOND_DEF_STEREO_COUNT>
0

> <PUBCHEM_BOND_UDEF_STEREO_COUNT>
0

> <PUBCHEM_ISOTOPIC_ATOM_COUNT>
0

> <PUBCHEM_COMPONENT_COUNT>
1

> <PUBCHEM_CACTVS_TAUTO_COUNT>
6

> <PUBCHEM_CONFORMER_ID>
0077BC7300000001

> <PUBCHEM_MMFF94_ENERGY>
69.2354

> <PUBCHEM_FEATURE_SELFOVERLAP>
40.666

> <PUBCHEM_SHAPE_FINGERPRINT>
10454371 7 18409157797760190188
10498660 4 18269840981132532691
10670039 82 18339628011245845132
10675989 125 16758051195160778949
1100329 8 18410856552099556793
11578080 2 14780370415253535033
12596602 18 17275385382829737306
12788726 201 18412831291150419595
13165054 235 18342746186713159078
13402501 40 18409454669529739320
14068700 675 18187646834874221921
14363568 33 17835786509278455985
14394314 77 18409440419119557809
14765038 42 18189882275300194281
14787075 74 18343022202807488701
15297060 5 18187356683599350072
15876981 60 18269836406961280015
15927050 60 17541945282573080524
15961568 22 18411976953968375396
15968369 153 17968387723827545000
17492 54 18201452419063560537
18336668 15 18131632262289319429
21236236 1 18412263934676505618
21623110 236 18342167890910393389
23557571 272 18409449193420472338
23559900 14 18337681802134123433
329604 57 18411699872585017456
392239 28 18410853295480677056
469060 322 17131828802806557119
6287921 2 17977372064938847412
6700243 42 17611146448687127150

> <PUBCHEM_SHAPE_MULTIPOLES>
562.24
14.34
4.04
1.21
15.33
1.31
0.01
-0.52
-2.15
-3.05
0.2
0.17
0.2
-1.14

> <PUBCHEM_SHAPE_SELFOVERLAP>
1186.262

> <PUBCHEM_SHAPE_VOLUME>
316.1

> <PUBCHEM_COORDINATE_TYPE>
2
5
10

$$$$

