13518
  -OEChem-06241222393D

 22 21  0     0  0  0  0  0  0999 V2000
    1.7333    1.4126    1.3634 F   0  0  0  0  0  0  0  0  0  0  0  0
    2.8032    1.1492   -0.5082 F   0  0  0  0  0  0  0  0  0  0  0  0
    1.0231    2.3822   -0.4560 F   0  0  0  0  0  0  0  0  0  0  0  0
    0.9555   -2.3754   -0.3963 F   0  0  0  0  0  0  0  0  0  0  0  0
    2.7758   -1.1916   -0.4844 F   0  0  0  0  0  0  0  0  0  0  0  0
    1.7053   -1.3776    1.3943 F   0  0  0  0  0  0  0  0  0  0  0  0
   -0.9525   -2.3765    0.4093 F   0  0  0  0  0  0  0  0  0  0  0  0
   -1.6554   -1.3971   -1.3952 F   0  0  0  0  0  0  0  0  0  0  0  0
   -2.7991   -1.2133    0.4436 F   0  0  0  0  0  0  0  0  0  0  0  0
   -1.7546    1.4079   -1.3589 F   0  0  0  0  0  0  0  0  0  0  0  0
   -0.9870    2.3731    0.4221 F   0  0  0  0  0  0  0  0  0  0  0  0
   -2.8074    1.1939    0.5392 F   0  0  0  0  0  0  0  0  0  0  0  0
    0.6081    0.0072   -1.7302 O   0  0  0  0  0  0  0  0  0  0  0  0
   -0.6035   -0.0046    1.7363 O   0  0  0  0  0  0  0  0  0  0  0  0
    0.7224    0.0096   -0.2938 C   0  0  0  0  0  0  0  0  0  0  0  0
   -0.7393    0.0075    0.3012 C   0  0  0  0  0  0  0  0  0  0  0  0
    1.5653    1.2480    0.0351 C   0  0  0  0  0  0  0  0  0  0  0  0
    1.5365   -1.2456    0.0606 C   0  0  0  0  0  0  0  0  0  0  0  0
   -1.5442   -1.2537   -0.0523 C   0  0  0  0  0  0  0  0  0  0  0  0
   -1.5857    1.2440   -0.0299 C   0  0  0  0  0  0  0  0  0  0  0  0
    1.5065   -0.0134   -2.1026 H   0  0  0  0  0  0  0  0  0  0  0  0
   -0.1846    0.8314    2.0035 H   0  0  0  0  0  0  0  0  0  0  0  0
  1 17  1  0  0  0  0
  2 17  1  0  0  0  0
  3 17  1  0  0  0  0
  4 18  1  0  0  0  0
  5 18  1  0  0  0  0
  6 18  1  0  0  0  0
  7 19  1  0  0  0  0
  8 19  1  0  0  0  0
  9 19  1  0  0  0  0
 10 20  1  0  0  0  0
 11 20  1  0  0  0  0
 12 20  1  0  0  0  0
 13 15  1  0  0  0  0
 13 21  1  0  0  0  0
 14 16  1  0  0  0  0
 14 22  1  0  0  0  0
 15 16  1  0  0  0  0
 15 17  1  0  0  0  0
 15 18  1  0  0  0  0
 16 19  1  0  0  0  0
 16 20  1  0  0  0  0
M  END
> <PUBCHEM_COMPOUND_CID>
13518

> <PUBCHEM_CONFORMER_RMSD>
0.8

> <PUBCHEM_CONFORMER_DIVERSEORDER>
1
3
2

> <PUBCHEM_MMFF94_PARTIAL_CHARGES>
22
1 -0.34
10 -0.34
11 -0.34
12 -0.34
13 -0.68
14 -0.68
15 0.28
16 0.28
17 1.02
18 1.02
19 1.02
2 -0.34
20 1.02
21 0.4
22 0.4
3 -0.34
4 -0.34
5 -0.34
6 -0.34
7 -0.34
8 -0.34
9 -0.34

> <PUBCHEM_EFFECTIVE_ROTOR_COUNT>
5

> <PUBCHEM_PHARMACOPHORE_FEATURES>
4
1 13 acceptor
1 13 donor
1 14 acceptor
1 14 donor

> <PUBCHEM_HEAVY_ATOM_COUNT>
20

> <PUBCHEM_ATOM_DEF_STEREO_COUNT>
0

> <PUBCHEM_ATOM_UDEF_STEREO_COUNT>
0

> <PUBCHEM_BOND_DEF_STEREO_COUNT>
0

> <PUBCHEM_BOND_UDEF_STEREO_COUNT>
0

> <PUBCHEM_ISOTOPIC_ATOM_COUNT>
0

> <PUBCHEM_COMPONENT_COUNT>
1

> <PUBCHEM_CACTVS_TAUTO_COUNT>
1

> <PUBCHEM_CONFORMER_ID>
000034CE00000001

> <PUBCHEM_MMFF94_ENERGY>
47.2823

> <PUBCHEM_FEATURE_SELFOVERLAP>
20.297

> <PUBCHEM_SHAPE_FINGERPRINT>
10863032 1 18408035212802974829
10967382 1 18410567388155544003
12423570 1 5311495237890606892
12524768 44 18337397161322578781
13140716 1 18338521935953232570
13172582 1 17979361081125081035
13299463 15 18263634078905828460
13380536 237 18266486284866510529
144361 1 18041271097719489294
14614273 12 18270692943471981957
15775835 57 18338781377721489921
16945 1 18410857663446384647
20511035 2 18187653517384437484
20525323 117 18191035512130270633
21501502 16 18410853261104912737
2334 1 18411141307381579783
23419403 2 16751076644358309504
23559900 14 18190731120384839014
241688 4 18121482575594597824
2748010 2 18410857663456947268
353137 74 18197505029947464527
5084963 1 17971179331941199016
528886 8 18050285864791034499
589210 1 18410575088958117671

> <PUBCHEM_SHAPE_MULTIPOLES>
312.57
3.26
2.47
1.22
0.02
0
0
-0.06
0
0.01
0
0
0
-0.02

> <PUBCHEM_SHAPE_SELFOVERLAP>
671.293

> <PUBCHEM_SHAPE_VOLUME>
170.9

> <PUBCHEM_COORDINATE_TYPE>
2
5
10

$$$$

