9036
  -OEChem-06261203213D

 46 49  0     1  0  0  0  0  0999 V2000
    4.9254    0.6206   -0.4886 O   0  0  0  0  0  0  0  0  0  0  0  0
   -2.3481    0.5572   -1.2211 N   0  0  1  0  0  0  0  0  0  0  0  0
    0.2533   -1.0728   -0.6643 C   0  0  2  0  0  0  0  0  0  0  0  0
   -0.9454   -0.8428    0.2586 C   0  0  2  0  0  0  0  0  0  0  0  0
   -1.3445    0.5948   -0.1607 C   0  0  2  0  0  0  0  0  0  0  0  0
   -0.3376   -0.8863   -2.1454 C   0  0  0  0  0  0  0  0  0  0  0  0
    0.7600   -2.5206   -0.4580 C   0  0  0  0  0  0  0  0  0  0  0  0
   -0.6764   -1.1518    1.7430 C   0  0  0  0  0  0  0  0  0  0  0  0
    1.3098    0.0384   -0.2708 C   0  0  0  0  0  0  0  0  0  0  0  0
   -0.5836    1.6085    0.6823 C   0  0  0  0  0  0  0  0  0  0  0  0
   -1.9030   -0.5066   -2.2011 C   0  0  0  0  0  0  0  0  0  0  0  0
    1.0372   -2.8611    1.0106 C   0  0  0  0  0  0  0  0  0  0  0  0
   -0.1755   -2.5881    1.8988 C   0  0  0  0  0  0  0  0  0  0  0  0
    0.9168    1.2554    0.4266 C   0  0  0  0  0  0  0  0  0  0  0  0
   -3.6985    0.3452   -0.7277 C   0  0  0  0  0  0  0  0  0  0  0  0
    2.6641   -0.1336   -0.5848 C   0  0  0  0  0  0  0  0  0  0  0  0
    1.8867    2.1817    0.8240 C   0  0  0  0  0  0  0  0  0  0  0  0
    3.6108    0.8141   -0.1858 C   0  0  0  0  0  0  0  0  0  0  0  0
    3.2276    1.9546    0.5221 C   0  0  0  0  0  0  0  0  0  0  0  0
   -4.1069    1.4144    0.2386 C   0  0  0  0  0  0  0  0  0  0  0  0
   -4.4723    1.1789    1.5038 C   0  0  0  0  0  0  0  0  0  0  0  0
   -1.7418   -1.5564    0.0048 H   0  0  0  0  0  0  0  0  0  0  0  0
   -0.7141    0.9546   -0.9872 H   0  0  0  0  0  0  0  0  0  0  0  0
   -0.2030   -1.8079   -2.7247 H   0  0  0  0  0  0  0  0  0  0  0  0
    0.2274   -0.1082   -2.6758 H   0  0  0  0  0  0  0  0  0  0  0  0
    1.6544   -2.7216   -1.0572 H   0  0  0  0  0  0  0  0  0  0  0  0
   -0.0040   -3.2211   -0.8233 H   0  0  0  0  0  0  0  0  0  0  0  0
   -1.6020   -1.0215    2.3162 H   0  0  0  0  0  0  0  0  0  0  0  0
    0.0654   -0.4887    2.1965 H   0  0  0  0  0  0  0  0  0  0  0  0
   -0.8338    1.5543    1.7457 H   0  0  0  0  0  0  0  0  0  0  0  0
   -0.7845    2.6308    0.3375 H   0  0  0  0  0  0  0  0  0  0  0  0
   -2.1408   -0.1614   -3.2138 H   0  0  0  0  0  0  0  0  0  0  0  0
   -2.4689   -1.4347   -2.0444 H   0  0  0  0  0  0  0  0  0  0  0  0
    1.8954   -2.2855    1.3757 H   0  0  0  0  0  0  0  0  0  0  0  0
    1.3136   -3.9189    1.0907 H   0  0  0  0  0  0  0  0  0  0  0  0
   -0.9811   -3.2861    1.6393 H   0  0  0  0  0  0  0  0  0  0  0  0
    0.0830   -2.7777    2.9467 H   0  0  0  0  0  0  0  0  0  0  0  0
   -3.8129   -0.6459   -0.2712 H   0  0  0  0  0  0  0  0  0  0  0  0
   -4.3970    0.3806   -1.5729 H   0  0  0  0  0  0  0  0  0  0  0  0
    3.0017   -1.0057   -1.1369 H   0  0  0  0  0  0  0  0  0  0  0  0
    1.6011    3.0895    1.3482 H   0  0  0  0  0  0  0  0  0  0  0  0
    3.9693    2.6870    0.8311 H   0  0  0  0  0  0  0  0  0  0  0  0
   -4.1147    2.4406   -0.1207 H   0  0  0  0  0  0  0  0  0  0  0  0
    5.4432    1.3666   -0.1400 H   0  0  0  0  0  0  0  0  0  0  0  0
   -4.7623    1.9977    2.1531 H   0  0  0  0  0  0  0  0  0  0  0  0
   -4.4858    0.1748    1.9130 H   0  0  0  0  0  0  0  0  0  0  0  0
  1 18  1  0  0  0  0
  1 44  1  0  0  0  0
  2  5  1  0  0  0  0
  2 11  1  0  0  0  0
  2 15  1  0  0  0  0
  3  4  1  0  0  0  0
  3  6  1  0  0  0  0
  3  7  1  0  0  0  0
  3  9  1  0  0  0  0
  4  5  1  0  0  0  0
  4  8  1  0  0  0  0
  4 22  1  0  0  0  0
  5 10  1  0  0  0  0
  5 23  1  0  0  0  0
  6 11  1  0  0  0  0
  6 24  1  0  0  0  0
  6 25  1  0  0  0  0
  7 12  1  0  0  0  0
  7 26  1  0  0  0  0
  7 27  1  0  0  0  0
  8 13  1  0  0  0  0
  8 28  1  0  0  0  0
  8 29  1  0  0  0  0
  9 14  2  0  0  0  0
  9 16  1  0  0  0  0
 10 14  1  0  0  0  0
 10 30  1  0  0  0  0
 10 31  1  0  0  0  0
 11 32  1  0  0  0  0
 11 33  1  0  0  0  0
 12 13  1  0  0  0  0
 12 34  1  0  0  0  0
 12 35  1  0  0  0  0
 13 36  1  0  0  0  0
 13 37  1  0  0  0  0
 14 17  1  0  0  0  0
 15 20  1  0  0  0  0
 15 38  1  0  0  0  0
 15 39  1  0  0  0  0
 16 18  2  0  0  0  0
 16 40  1  0  0  0  0
 17 19  2  0  0  0  0
 17 41  1  0  0  0  0
 18 19  1  0  0  0  0
 19 42  1  0  0  0  0
 20 21  2  0  0  0  0
 20 43  1  0  0  0  0
 21 45  1  0  0  0  0
 21 46  1  0  0  0  0
M  END
> <PUBCHEM_COMPOUND_CID>
9036

> <PUBCHEM_CONFORMER_RMSD>
0.6

> <PUBCHEM_CONFORMER_DIVERSEORDER>
1
3
2
4
5
6

> <PUBCHEM_MMFF94_PARTIAL_CHARGES>
22
1 -0.53
10 0.14
11 0.27
14 -0.14
15 0.41
16 -0.15
17 -0.15
18 0.08
19 -0.15
2 -0.81
20 -0.29
21 -0.3
3 0.14
40 0.15
41 0.15
42 0.15
43 0.15
44 0.45
45 0.15
46 0.15
5 0.27
9 -0.14

> <PUBCHEM_EFFECTIVE_ROTOR_COUNT>
3.6

> <PUBCHEM_PHARMACOPHORE_FEATURES>
7
1 1 donor
1 2 cation
1 21 hydrophobe
6 2 3 4 5 6 11 rings
6 3 4 5 9 10 14 rings
6 3 4 7 8 12 13 rings
6 9 14 16 17 18 19 rings

> <PUBCHEM_HEAVY_ATOM_COUNT>
21

> <PUBCHEM_ATOM_DEF_STEREO_COUNT>
3

> <PUBCHEM_ATOM_UDEF_STEREO_COUNT>
0

> <PUBCHEM_BOND_DEF_STEREO_COUNT>
0

> <PUBCHEM_BOND_UDEF_STEREO_COUNT>
0

> <PUBCHEM_ISOTOPIC_ATOM_COUNT>
0

> <PUBCHEM_COMPONENT_COUNT>
1

> <PUBCHEM_CACTVS_TAUTO_COUNT>
3

> <PUBCHEM_CONFORMER_ID>
0000234C00000001

> <PUBCHEM_MMFF94_ENERGY>
133.7041

> <PUBCHEM_FEATURE_SELFOVERLAP>
36.399

> <PUBCHEM_SHAPE_FINGERPRINT>
10165383 225 17988350533833554332
10382601 240 18263634220808866369
10863032 1 18410014312321730983
10906281 52 18187916245741894296
10922049 32 18411699855188714529
10948715 1 18334012765869375317
11315181 36 15864344698415260804
12423570 1 5082967385433820971
12491281 212 17968383338222401693
12592029 89 17895186718815305247
12644460 14 18262796405943737433
12788726 201 17617961131007360962
13004483 165 10158607282093709861
13140716 1 18335989670596514040
133893 2 17411948119971029595
13464514 151 18337667632814766273
13544653 18 10447932788790316549
13583140 156 18341048618844937693
14251751 93 17821733784745427087
14787075 74 18338793408547287361
14817 1 16175960989971072438
14955137 171 18046634674617906114
15295992 7 18337107856979502352
16945 1 18335996357802298533
1813 80 17611475524301172686
18186145 218 18338248088949657452
18769570 83 5544934415921335259
19765921 60 18411709802296081321
200 152 14634865336583670348
20905425 154 17975974589823256740
21041028 32 17906174301614751032
21120745 212 16612515459014316322
21330990 113 17988634156257106715
21421861 104 17980755257759120777
21524375 3 18410580560783369805
22112679 90 17752517435737620311
23352939 185 16012378755383478558
23419403 2 17910355632613890243
23493267 7 17821730533381629639
23558518 356 18048325439779928012
23559900 14 14763229062450080595
25 1 18410295821710719780
2748010 2 17757551855211584348
298252 57 17676488332648759271
34934 24 18188209922245763905
3759504 43 18201152157688796660
394222 165 18187929516494020019
404807 14 15219451712103361206
427121 178 18059843000559442123
4340502 62 18201709691962686689
439807 62 12318015044389462505
458136 41 18131064978244495123
46194498 28 7348306100647250281
474 4 18409729547637662809
495365 180 17486234476324513949
5845 1 16604983636754168363
5895379 119 16957313410992371449
6138700 20 18263922306193685750
633830 44 18335706026524253228
6442390 28 18200866284528750043
81228 2 17411910470150303243
9981440 41 16814361055036250504
9999458 23 18341888601950645925

> <PUBCHEM_SHAPE_MULTIPOLES>
421.32
6.36
2.72
1.78
1.08
1.38
-0.28
-4.84
0.11
-1.09
1.31
1.08
0.85
-0.24

> <PUBCHEM_SHAPE_SELFOVERLAP>
904.053

> <PUBCHEM_SHAPE_VOLUME>
231.1

> <PUBCHEM_COORDINATE_TYPE>
2
5
10

$$$$

