854120
  -OEChem-06241222473D

 42 44  0     1  0  0  0  0  0999 V2000
   -3.1556   -1.2518   -0.8667 N   0  0  0  0  0  0  0  0  0  0  0  0
   -0.9003    1.4753    0.0166 N   0  0  0  0  0  0  0  0  0  0  0  0
   -3.0762    0.6348    0.9238 C   0  0  0  0  0  0  0  0  0  0  0  0
   -1.6578    0.2909    0.4153 C   0  0  1  0  0  0  0  0  0  0  0  0
   -3.9710    1.0335   -0.2630 C   0  0  0  0  0  0  0  0  0  0  0  0
   -3.6631   -0.6638    1.5082 C   0  0  0  0  0  0  0  0  0  0  0  0
   -1.7792   -0.7142   -0.7524 C   0  0  0  0  0  0  0  0  0  0  0  0
   -4.0547   -0.1407   -1.2535 C   0  0  0  0  0  0  0  0  0  0  0  0
   -3.5855   -1.7753    0.4481 C   0  0  0  0  0  0  0  0  0  0  0  0
    0.4413    1.1099   -0.4116 C   0  0  2  0  0  0  0  0  0  0  0  0
    1.1770    0.4106    0.7460 C   0  0  0  0  0  0  0  0  0  0  0  0
    1.1577    2.3760   -0.8817 C   0  0  0  0  0  0  0  0  0  0  0  0
    2.5709   -0.0465    0.3883 C   0  0  0  0  0  0  0  0  0  0  0  0
    2.7560   -1.3165   -0.1344 C   0  0  0  0  0  0  0  0  0  0  0  0
    3.6397    0.8122    0.5896 C   0  0  0  0  0  0  0  0  0  0  0  0
    4.0438   -1.7389   -0.4645 C   0  0  0  0  0  0  0  0  0  0  0  0
    4.9275    0.3900    0.2594 C   0  0  0  0  0  0  0  0  0  0  0  0
    5.1295   -0.8857   -0.2676 C   0  0  0  0  0  0  0  0  0  0  0  0
   -3.0569    1.4229    1.6846 H   0  0  0  0  0  0  0  0  0  0  0  0
   -1.1920   -0.1982    1.2754 H   0  0  0  0  0  0  0  0  0  0  0  0
   -3.5670    1.9209   -0.7638 H   0  0  0  0  0  0  0  0  0  0  0  0
   -4.9759    1.2922    0.0915 H   0  0  0  0  0  0  0  0  0  0  0  0
   -4.7056   -0.5018    1.8080 H   0  0  0  0  0  0  0  0  0  0  0  0
   -3.1120   -0.9647    2.4069 H   0  0  0  0  0  0  0  0  0  0  0  0
   -1.5275   -0.2682   -1.7230 H   0  0  0  0  0  0  0  0  0  0  0  0
   -1.0694   -1.5393   -0.6115 H   0  0  0  0  0  0  0  0  0  0  0  0
   -5.0875   -0.5067   -1.3154 H   0  0  0  0  0  0  0  0  0  0  0  0
   -3.8065    0.2057   -2.2644 H   0  0  0  0  0  0  0  0  0  0  0  0
   -2.8929   -2.5607    0.7762 H   0  0  0  0  0  0  0  0  0  0  0  0
   -4.5622   -2.2654    0.3513 H   0  0  0  0  0  0  0  0  0  0  0  0
   -0.8555    2.1299    0.7973 H   0  0  0  0  0  0  0  0  0  0  0  0
    0.4192    0.4457   -1.2826 H   0  0  0  0  0  0  0  0  0  0  0  0
    0.6717   -0.4948    1.0935 H   0  0  0  0  0  0  0  0  0  0  0  0
    1.2292    1.0722    1.6221 H   0  0  0  0  0  0  0  0  0  0  0  0
    2.1136    2.1434   -1.3613 H   0  0  0  0  0  0  0  0  0  0  0  0
    1.3457    3.0671   -0.0524 H   0  0  0  0  0  0  0  0  0  0  0  0
    0.5563    2.9073   -1.6291 H   0  0  0  0  0  0  0  0  0  0  0  0
    1.9169   -1.9874   -0.2950 H   0  0  0  0  0  0  0  0  0  0  0  0
    3.4953    1.8058    1.0040 H   0  0  0  0  0  0  0  0  0  0  0  0
    4.2010   -2.7317   -0.8756 H   0  0  0  0  0  0  0  0  0  0  0  0
    5.7731    1.0539    0.4136 H   0  0  0  0  0  0  0  0  0  0  0  0
    6.1322   -1.2145   -0.5246 H   0  0  0  0  0  0  0  0  0  0  0  0
  1  7  1  0  0  0  0
  1  8  1  0  0  0  0
  1  9  1  0  0  0  0
  2  4  1  0  0  0  0
  2 10  1  0  0  0  0
  2 31  1  0  0  0  0
  3  4  1  0  0  0  0
  3  5  1  0  0  0  0
  3  6  1  0  0  0  0
  3 19  1  0  0  0  0
  4  7  1  0  0  0  0
  4 20  1  0  0  0  0
  5  8  1  0  0  0  0
  5 21  1  0  0  0  0
  5 22  1  0  0  0  0
  6  9  1  0  0  0  0
  6 23  1  0  0  0  0
  6 24  1  0  0  0  0
  7 25  1  0  0  0  0
  7 26  1  0  0  0  0
  8 27  1  0  0  0  0
  8 28  1  0  0  0  0
  9 29  1  0  0  0  0
  9 30  1  0  0  0  0
 10 11  1  0  0  0  0
 10 12  1  0  0  0  0
 10 32  1  0  0  0  0
 11 13  1  0  0  0  0
 11 33  1  0  0  0  0
 11 34  1  0  0  0  0
 12 35  1  0  0  0  0
 12 36  1  0  0  0  0
 12 37  1  0  0  0  0
 13 14  2  0  0  0  0
 13 15  1  0  0  0  0
 14 16  1  0  0  0  0
 14 38  1  0  0  0  0
 15 17  2  0  0  0  0
 15 39  1  0  0  0  0
 16 18  2  0  0  0  0
 16 40  1  0  0  0  0
 17 18  1  0  0  0  0
 17 41  1  0  0  0  0
 18 42  1  0  0  0  0
M  END
> <PUBCHEM_COMPOUND_CID>
854120

> <PUBCHEM_CONFORMER_RMSD>
0.6

> <PUBCHEM_CONFORMER_DIVERSEORDER>
1
4
7
6
5
2
3
8

> <PUBCHEM_MMFF94_PARTIAL_CHARGES>
20
1 -0.81
10 0.27
11 0.14
13 -0.14
14 -0.15
15 -0.15
16 -0.15
17 -0.15
18 -0.15
2 -0.9
31 0.36
38 0.15
39 0.15
4 0.27
40 0.15
41 0.15
42 0.15
7 0.27
8 0.27
9 0.27

> <PUBCHEM_EFFECTIVE_ROTOR_COUNT>
5.2

> <PUBCHEM_PHARMACOPHORE_FEATURES>
5
1 1 cation
1 2 cation
1 2 donor
6 13 14 15 16 17 18 rings
8 1 3 4 5 6 7 8 9 rings

> <PUBCHEM_HEAVY_ATOM_COUNT>
18

> <PUBCHEM_ATOM_DEF_STEREO_COUNT>
2

> <PUBCHEM_ATOM_UDEF_STEREO_COUNT>
0

> <PUBCHEM_BOND_DEF_STEREO_COUNT>
0

> <PUBCHEM_BOND_UDEF_STEREO_COUNT>
0

> <PUBCHEM_ISOTOPIC_ATOM_COUNT>
0

> <PUBCHEM_COMPONENT_COUNT>
1

> <PUBCHEM_CACTVS_TAUTO_COUNT>
1

> <PUBCHEM_CONFORMER_ID>
000D086800000001

> <PUBCHEM_MMFF94_ENERGY>
44.2894

> <PUBCHEM_FEATURE_SELFOVERLAP>
25.371

> <PUBCHEM_SHAPE_FINGERPRINT>
10366900 7 15936414441744505290
10646746 165 8790885181541713426
11046707 91 18260831500864886328
11315181 36 17240206525383623200
11543360 7 14261344735184113032
11552529 35 16660937555832217815
12107183 9 17173755543152487466
12403259 415 7925912590741821818
12553582 1 18202286934812927616
12596602 18 15357706275285183322
12633257 1 16008744693386516299
12670546 56 17022628567530938984
12707595 3 17917712379100019104
128620 24 17632576067740136994
12916748 109 9007051387902460932
12916754 54 18270115687594128347
13167823 11 18040154019939333694
13296908 3 18342458140325500001
13533116 47 18041848285916706289
13544653 18 18334294275380053552
13583140 156 14635162264435727143
13675066 3 18410291397831179417
14252887 29 18411135831920802344
14386348 63 18272089409180625810
15196674 1 18335140899275568174
15375358 24 18343868818255259794
15788980 27 15051737499369139728
17349148 13 15357988832456385669
17834072 33 17748833990391162468
1813 80 18131061649982470660
18186145 218 16845290518745905968
19141452 34 18335420192419143149
193927 3 18201428130691303019
200 152 17894920624274574501
20281475 54 18335699412358805204
20325693 3 16343703244709492963
20374829 77 18342181102451030234
204376 136 7565053974117592988
20645477 70 18199759054517467989
20871999 31 18060138794778016300
21250096 35 18408044026350315736
21524375 3 8718820998829248736
21673915 165 18187369796572640094
221490 88 18128809751157430704
22485316 2 18409168835356349874
22646028 1 17822013111885100418
22646028 28 18411136917940937999
23402539 116 18131354128939375144
23557571 272 18200035178555986124
23559900 14 18187096030803821728
2871803 45 18341618161208992614
2916195 48 9799399006637060502
314173 85 18412265060269361864
351380 180 10447925062376032246
4214541 1 18187928421098251536
4921388 177 16845282826802351331
5104073 3 18260268564234445026
542803 24 13901906730490432662
7495541 125 14548439315677015692
77779 3 18187364341937378128
83771 10 18408042931328756128
9709674 26 18199748042274101059

> <PUBCHEM_SHAPE_MULTIPOLES>
360.47
10.84
1.86
1.1
5.34
0.22
0.06
-3.35
0.02
0.29
-0.34
-0.94
-0.04
0.37

> <PUBCHEM_SHAPE_SELFOVERLAP>
757.394

> <PUBCHEM_SHAPE_VOLUME>
196.7

> <PUBCHEM_COORDINATE_TYPE>
2
5
10

$$$$

