17395603
  -OEChem-06241222513D

 45 48  0     0  0  0  0  0  0999 V2000
    4.4367    0.8387    0.6558 S   0  0  0  0  0  0  0  0  0  0  0  0
    0.9936   -1.9399   -0.7976 O   0  0  0  0  0  0  0  0  0  0  0  0
   -2.9662    1.1243   -0.2233 N   0  0  0  0  0  0  0  0  0  0  0  0
   -3.7244   -1.1437    0.1397 N   0  0  0  0  0  0  0  0  0  0  0  0
   -3.2352   -2.3928    0.2427 N   0  0  0  0  0  0  0  0  0  0  0  0
    1.9888    0.0261    0.0221 N   0  0  0  0  0  0  0  0  0  0  0  0
    3.8819   -1.5004   -0.2315 N   0  0  0  0  0  0  0  0  0  0  0  0
    5.2511   -1.4919   -0.0296 N   0  0  0  0  0  0  0  0  0  0  0  0
   -1.9363    3.2813   -0.6017 C   0  0  0  0  0  0  0  0  0  0  0  0
   -1.1410    4.1959    0.2834 C   0  0  0  0  0  0  0  0  0  0  0  0
   -2.6281    4.0916    0.4549 C   0  0  0  0  0  0  0  0  0  0  0  0
   -1.8110    1.8016   -0.4312 C   0  0  0  0  0  0  0  0  0  0  0  0
   -0.5379    1.2455   -0.4987 C   0  0  0  0  0  0  0  0  0  0  0  0
   -2.7672   -0.1976   -0.0804 C   0  0  0  0  0  0  0  0  0  0  0  0
   -0.3947   -0.1334   -0.3428 C   0  0  0  0  0  0  0  0  0  0  0  0
   -1.5605   -0.8781   -0.1250 C   0  0  0  0  0  0  0  0  0  0  0  0
   -5.1459   -0.9241    0.2651 C   0  0  0  0  0  0  0  0  0  0  0  0
   -1.9186   -2.2254    0.0805 C   0  0  0  0  0  0  0  0  0  0  0  0
    0.9106   -0.7633   -0.4045 C   0  0  0  0  0  0  0  0  0  0  0  0
   -5.9330   -1.6209   -0.8463 C   0  0  0  0  0  0  0  0  0  0  0  0
   -5.6647   -1.3113    1.6514 C   0  0  0  0  0  0  0  0  0  0  0  0
    3.3349   -0.3466    0.0871 C   0  0  0  0  0  0  0  0  0  0  0  0
    5.6695   -0.3324    0.4308 C   0  0  0  0  0  0  0  0  0  0  0  0
    7.0720    0.0026    0.7479 C   0  0  0  0  0  0  0  0  0  0  0  0
    7.8257    0.5943   -0.4490 C   0  0  0  0  0  0  0  0  0  0  0  0
   -2.0816    3.6217   -1.6245 H   0  0  0  0  0  0  0  0  0  0  0  0
   -0.5216    3.7796    1.0688 H   0  0  0  0  0  0  0  0  0  0  0  0
   -0.7470    5.1049   -0.1554 H   0  0  0  0  0  0  0  0  0  0  0  0
   -3.2326    4.9308    0.1322 H   0  0  0  0  0  0  0  0  0  0  0  0
   -2.9948    3.5974    1.3467 H   0  0  0  0  0  0  0  0  0  0  0  0
    0.3133    1.8869   -0.7065 H   0  0  0  0  0  0  0  0  0  0  0  0
   -5.3140    0.1540    0.1496 H   0  0  0  0  0  0  0  0  0  0  0  0
   -1.2819   -3.0975    0.1228 H   0  0  0  0  0  0  0  0  0  0  0  0
   -6.9959   -1.3640   -0.7872 H   0  0  0  0  0  0  0  0  0  0  0  0
   -5.5663   -1.3180   -1.8333 H   0  0  0  0  0  0  0  0  0  0  0  0
   -5.8460   -2.7109   -0.7791 H   0  0  0  0  0  0  0  0  0  0  0  0
   -5.5655   -2.3873    1.8327 H   0  0  0  0  0  0  0  0  0  0  0  0
   -5.1076   -0.7887    2.4368 H   0  0  0  0  0  0  0  0  0  0  0  0
   -6.7228   -1.0488    1.7558 H   0  0  0  0  0  0  0  0  0  0  0  0
    1.8178    0.9683    0.3612 H   0  0  0  0  0  0  0  0  0  0  0  0
    7.1297    0.7019    1.5907 H   0  0  0  0  0  0  0  0  0  0  0  0
    7.5914   -0.9080    1.0707 H   0  0  0  0  0  0  0  0  0  0  0  0
    7.8237   -0.1002   -1.2958 H   0  0  0  0  0  0  0  0  0  0  0  0
    8.8656    0.7994   -0.1760 H   0  0  0  0  0  0  0  0  0  0  0  0
    7.3674    1.5321   -0.7801 H   0  0  0  0  0  0  0  0  0  0  0  0
  1 22  1  0  0  0  0
  1 23  1  0  0  0  0
  2 19  2  0  0  0  0
  3 12  2  0  0  0  0
  3 14  1  0  0  0  0
  4  5  1  0  0  0  0
  4 14  1  0  0  0  0
  4 17  1  0  0  0  0
  5 18  2  0  0  0  0
  6 19  1  0  0  0  0
  6 22  1  0  0  0  0
  6 40  1  0  0  0  0
  7  8  1  0  0  0  0
  7 22  2  0  0  0  0
  8 23  2  0  0  0  0
  9 10  1  0  0  0  0
  9 11  1  0  0  0  0
  9 12  1  0  0  0  0
  9 26  1  0  0  0  0
 10 11  1  0  0  0  0
 10 27  1  0  0  0  0
 10 28  1  0  0  0  0
 11 29  1  0  0  0  0
 11 30  1  0  0  0  0
 12 13  1  0  0  0  0
 13 15  2  0  0  0  0
 13 31  1  0  0  0  0
 14 16  2  0  0  0  0
 15 16  1  0  0  0  0
 15 19  1  0  0  0  0
 16 18  1  0  0  0  0
 17 20  1  0  0  0  0
 17 21  1  0  0  0  0
 17 32  1  0  0  0  0
 18 33  1  0  0  0  0
 20 34  1  0  0  0  0
 20 35  1  0  0  0  0
 20 36  1  0  0  0  0
 21 37  1  0  0  0  0
 21 38  1  0  0  0  0
 21 39  1  0  0  0  0
 23 24  1  0  0  0  0
 24 25  1  0  0  0  0
 24 41  1  0  0  0  0
 24 42  1  0  0  0  0
 25 43  1  0  0  0  0
 25 44  1  0  0  0  0
 25 45  1  0  0  0  0
M  END
> <PUBCHEM_COMPOUND_CID>
17395603

> <PUBCHEM_CONFORMER_RMSD>
0.8

> <PUBCHEM_CONFORMER_DIVERSEORDER>
1
22
19
11
24
26
25
17
15
13
3
18
27
29
23
16
30
28
8
4
12
2
20
14
5
7
9
10
6
21

> <PUBCHEM_MMFF94_PARTIAL_CHARGES>
29
1 -0.08
10 -0.2
11 -0.2
12 0.28
13 -0.15
14 0.11
15 0.09
17 0.26
18 0.14
19 0.54
2 -0.57
22 0.44
23 0.2
24 0.18
26 0.1
27 0.1
28 0.1
29 0.1
3 -0.57
30 0.1
31 0.15
33 0.15
4 0.31
40 0.37
5 -0.71
6 -0.49
7 -0.34
8 -0.34
9 -0.07

> <PUBCHEM_EFFECTIVE_ROTOR_COUNT>
6.6

> <PUBCHEM_PHARMACOPHORE_FEATURES>
10
1 2 acceptor
1 25 hydrophobe
1 3 acceptor
1 5 acceptor
1 6 donor
1 8 acceptor
3 17 20 21 hydrophobe
5 1 7 8 22 23 rings
5 4 5 14 16 18 rings
6 3 12 13 14 15 16 rings

> <PUBCHEM_HEAVY_ATOM_COUNT>
25

> <PUBCHEM_ATOM_DEF_STEREO_COUNT>
0

> <PUBCHEM_ATOM_UDEF_STEREO_COUNT>
0

> <PUBCHEM_BOND_DEF_STEREO_COUNT>
0

> <PUBCHEM_BOND_UDEF_STEREO_COUNT>
0

> <PUBCHEM_ISOTOPIC_ATOM_COUNT>
0

> <PUBCHEM_COMPONENT_COUNT>
1

> <PUBCHEM_CACTVS_TAUTO_COUNT>
3

> <PUBCHEM_CONFORMER_ID>
01096F9300000001

> <PUBCHEM_MMFF94_ENERGY>
45.814

> <PUBCHEM_FEATURE_SELFOVERLAP>
50.854

> <PUBCHEM_SHAPE_FINGERPRINT>
10 15 18264221240618377264
10050765 1 18121781887623905270
10319926 262 18265349476739957210
10369192 42 16949998119719713844
10411042 1 18194684765938800279
10595046 47 18343303687260149378
11101153 10 18341048519839514436
11315181 36 17561362863808496030
11646440 116 18271515417367667835
12107698 1 18342179943168712472
12236239 1 17346883355798649830
12390115 104 18189325939511992688
12403259 415 17967543372106542344
12516196 113 18338801113544880771
12596602 18 17632302289513632824
12760667 363 18413109437938743559
12788726 201 18270099267280132173
12930653 34 18265052611972180678
13073987 5 18341056315536926834
13140716 1 18268143150390281267
13257819 101 14274280580365117729
13383665 225 18266717217311881868
13383668 251 17242761705161395912
13540713 4 18045490069811725279
14150022 121 18040710389950565673
15131766 46 15649611099127282856
15338160 23 18335695095938376297
16087824 20 18338520854967347741
17844677 252 18411414043070501420
18006028 8 18411985728539172487
20238998 120 18334861589495546993
20510252 161 18336548325862058073
20600515 1 18116414987159507231
20642791 13 18337669832154416173
21033648 29 17750255710950924616
21065198 48 18129950087114207858
21236236 1 18336266829347298157
21267235 1 18343015567004037914
21304253 13 18334573517480530049
21792934 111 18412547587819067353
22956985 138 17336737921243338939
2297311 6 18410570682653929500
23402539 116 18335707135369536151
23557571 272 18411135857094494180
23558518 356 18126836334218621255
23559900 14 18270125608551733808
23845131 108 17617649299988500529
24771293 8 18186791497012264235
25147074 1 17917131854568028884
2747138 104 18342448206662354194
283562 15 18341054116123229051
314173 85 18409158897050239151
335352 9 18412831257761241991
34797466 226 18113890534732987292
350125 39 18408885131529444136
4409770 3 18271536377008207421
5104073 3 18267032820451848978
5969126 39 18261686917254834125
7226269 152 18272654550020957811
7808743 9 18267026253014862400

> <PUBCHEM_SHAPE_MULTIPOLES>
482.58
16.08
3.8
0.89
26.71
5.63
0.17
-6.54
2.52
-5.29
0.15
-0.55
-0.1
0.39

> <PUBCHEM_SHAPE_SELFOVERLAP>
1025.494

> <PUBCHEM_SHAPE_VOLUME>
275.2

> <PUBCHEM_COORDINATE_TYPE>
2
5
10

$$$$

