14139
  -OEChem-06241222422D

 35 35  0     1  0  0  0  0  0999 V2000
    4.1840    0.0000    0.0000 Cl  0  5  0  0  0  0  0  0  0  0  0  0
    3.1350    2.8100    0.0000 O   0  0  0  0  0  0  0  0  0  0  0  0
    4.8671    3.8100    0.0000 N   0  0  0  0  0  0  0  0  0  0  0  0
    6.5991    3.8100    0.0000 N   0  3  0  0  0  0  0  0  0  0  0  0
    3.1350    3.8100    0.0000 C   0  0  3  0  0  0  0  0  0  0  0  0
    4.0010    4.3100    0.0000 C   0  0  0  0  0  0  0  0  0  0  0  0
    2.2690    4.3100    0.0000 C   0  0  0  0  0  0  0  0  0  0  0  0
    5.7331    4.3100    0.0000 C   0  0  0  0  0  0  0  0  0  0  0  0
    2.2690    5.3100    0.0000 C   0  0  0  0  0  0  0  0  0  0  0  0
    1.4030    3.8100    0.0000 C   0  0  0  0  0  0  0  0  0  0  0  0
    5.7331    5.3100    0.0000 C   0  0  0  0  0  0  0  0  0  0  0  0
    7.4651    5.3100    0.0000 C   0  0  0  0  0  0  0  0  0  0  0  0
    7.4651    4.3100    0.0000 C   0  0  0  0  0  0  0  0  0  0  0  0
    6.5991    5.8100    0.0000 C   0  0  0  0  0  0  0  0  0  0  0  0
    1.4030    5.8100    0.0000 C   0  0  0  0  0  0  0  0  0  0  0  0
    0.5369    4.3100    0.0000 C   0  0  0  0  0  0  0  0  0  0  0  0
    0.5369    5.3100    0.0000 C   0  0  0  0  0  0  0  0  0  0  0  0
    8.3312    5.8100    0.0000 C   0  0  0  0  0  0  0  0  0  0  0  0
    3.6720    3.5000    0.0000 H   0  0  0  0  0  0  0  0  0  0  0  0
    4.3996    4.7850    0.0000 H   0  0  0  0  0  0  0  0  0  0  0  0
    3.6025    4.7850    0.0000 H   0  0  0  0  0  0  0  0  0  0  0  0
    4.8671    3.1900    0.0000 H   0  0  0  0  0  0  0  0  0  0  0  0
    2.8059    5.6200    0.0000 H   0  0  0  0  0  0  0  0  0  0  0  0
    1.4030    3.1900    0.0000 H   0  0  0  0  0  0  0  0  0  0  0  0
    6.5991    3.1900    0.0000 H   0  0  0  0  0  0  0  0  0  0  0  0
    5.1962    5.6200    0.0000 H   0  0  0  0  0  0  0  0  0  0  0  0
    8.0021    4.0000    0.0000 H   0  0  0  0  0  0  0  0  0  0  0  0
    6.5991    6.4300    0.0000 H   0  0  0  0  0  0  0  0  0  0  0  0
    2.5981    2.5000    0.0000 H   0  0  0  0  0  0  0  0  0  0  0  0
    1.4030    6.4300    0.0000 H   0  0  0  0  0  0  0  0  0  0  0  0
    0.0000    4.0000    0.0000 H   0  0  0  0  0  0  0  0  0  0  0  0
    0.0000    5.6200    0.0000 H   0  0  0  0  0  0  0  0  0  0  0  0
    8.6412    5.2731    0.0000 H   0  0  0  0  0  0  0  0  0  0  0  0
    8.8681    6.1200    0.0000 H   0  0  0  0  0  0  0  0  0  0  0  0
    8.0212    6.3469    0.0000 H   0  0  0  0  0  0  0  0  0  0  0  0
  2  5  1  0  0  0  0
  2 29  1  0  0  0  0
  3  6  1  0  0  0  0
  3  8  1  0  0  0  0
  3 22  1  0  0  0  0
  4  8  2  0  0  0  0
  4 13  1  0  0  0  0
  4 25  1  0  0  0  0
  5  6  1  0  0  0  0
  5  7  1  0  0  0  0
  5 19  1  0  0  0  0
  6 20  1  0  0  0  0
  6 21  1  0  0  0  0
  7  9  2  0  0  0  0
  7 10  1  0  0  0  0
  8 11  1  0  0  0  0
  9 15  1  0  0  0  0
  9 23  1  0  0  0  0
 10 16  2  0  0  0  0
 10 24  1  0  0  0  0
 11 14  2  0  0  0  0
 11 26  1  0  0  0  0
 12 13  2  0  0  0  0
 12 14  1  0  0  0  0
 12 18  1  0  0  0  0
 13 27  1  0  0  0  0
 14 28  1  0  0  0  0
 15 17  2  0  0  0  0
 15 30  1  0  0  0  0
 16 17  1  0  0  0  0
 16 31  1  0  0  0  0
 17 32  1  0  0  0  0
 18 33  1  0  0  0  0
 18 34  1  0  0  0  0
 18 35  1  0  0  0  0
M  CHG  2   1  -1   4   1
M  END
> <PUBCHEM_COMPOUND_CID>
14139

> <PUBCHEM_COMPOUND_CANONICALIZED>
1

> <PUBCHEM_CACTVS_COMPLEXITY>
216

> <PUBCHEM_CACTVS_HBOND_ACCEPTOR>
3

> <PUBCHEM_CACTVS_HBOND_DONOR>
3

> <PUBCHEM_CACTVS_ROTATABLE_BOND>
4

> <PUBCHEM_CACTVS_SUBSKEYS>
AAADceBzIAAEAAAAAAAAAAAAAAAAAAAAAAA8QAAAAAAAAAABwAAAHgAQCAAADBThmgY/sJLJkgCgAjJnZACCgCmxAiAJ2aA4bJiKNuLAmZGEcAhs0APY2CeQwKAOAAAAAAAAAAAAAAAAAAAAAAAAAAAAAA==

> <PUBCHEM_IUPAC_OPENEYE_NAME>
2-[(5-methylpyridin-1-ium-2-yl)amino]-1-phenyl-ethanol chloride

> <PUBCHEM_IUPAC_CAS_NAME>
2-[(5-methyl-2-pyridin-1-iumyl)amino]-1-phenylethanol chloride

> <PUBCHEM_IUPAC_NAME>
2-[(5-methylpyridin-1-ium-2-yl)amino]-1-phenylethanol chloride

> <PUBCHEM_IUPAC_SYSTEMATIC_NAME>
2-[(5-methylpyridin-1-ium-2-yl)amino]-1-phenyl-ethanol chloride

> <PUBCHEM_IUPAC_TRADITIONAL_NAME>
2-[(5-methylpyridin-1-ium-2-yl)amino]-1-phenyl-ethanol chloride

> <PUBCHEM_IUPAC_INCHI>
InChI=1S/C14H16N2O.ClH/c1-11-7-8-14(15-9-11)16-10-13(17)12-5-3-2-4-6-12;/h2-9,13,17H,10H2,1H3,(H,15,16);1H

> <PUBCHEM_IUPAC_INCHIKEY>
YKBJTEKIDBSXCM-UHFFFAOYSA-N

> <PUBCHEM_EXACT_MASS>
264.102941

> <PUBCHEM_MOLECULAR_FORMULA>
C14H17ClN2O

> <PUBCHEM_MOLECULAR_WEIGHT>
264.75058

> <PUBCHEM_OPENEYE_CAN_SMILES>
CC1=C[NH+]=C(C=C1)NCC(C2=CC=CC=C2)O.[Cl-]

> <PUBCHEM_OPENEYE_ISO_SMILES>
CC1=C[NH+]=C(C=C1)NCC(C2=CC=CC=C2)O.[Cl-]

> <PUBCHEM_CACTVS_TPSA>
46.4

> <PUBCHEM_MONOISOTOPIC_WEIGHT>
264.102941

> <PUBCHEM_TOTAL_CHARGE>
0

> <PUBCHEM_HEAVY_ATOM_COUNT>
18

> <PUBCHEM_ATOM_DEF_STEREO_COUNT>
0

> <PUBCHEM_ATOM_UDEF_STEREO_COUNT>
1

> <PUBCHEM_BOND_DEF_STEREO_COUNT>
0

> <PUBCHEM_BOND_UDEF_STEREO_COUNT>
0

> <PUBCHEM_ISOTOPIC_ATOM_COUNT>
0

> <PUBCHEM_COMPONENT_COUNT>
2

> <PUBCHEM_CACTVS_TAUTO_COUNT>
2

> <PUBCHEM_COORDINATE_TYPE>
1
5
255

> <PUBCHEM_BONDANNOTATIONS>
10  16  8
11  14  8
12  13  8
12  14  8
15  17  8
16  17  8
5  2  3
4  13  8
4  8  8
7  10  8
7  9  8
8  11  8
9  15  8

$$$$

