13409
  -OEChem-06261209462D

 25 27  0     1  0  0  0  0  0999 V2000
    3.7129   -1.3244    0.0000 O   0  0  0  0  0  0  0  0  0  0  0  0
    2.5739    0.4180    0.0000 C   0  0  3  0  0  0  0  0  0  0  0  0
    2.3886    1.1911    0.0000 C   0  0  3  0  0  0  0  0  0  0  0  0
    2.0000   -0.0021    0.0000 C   0  0  3  0  0  0  0  0  0  0  0  0
    3.2246    0.2554    0.0000 C   0  0  0  0  0  0  0  0  0  0  0  0
    4.0843    0.5806    0.0000 C   0  0  3  0  0  0  0  0  0  0  0  0
    3.3827    1.3244    0.0000 C   0  0  0  0  0  0  0  0  0  0  0  0
    3.3827   -0.3805    0.0000 C   0  0  0  0  0  0  0  0  0  0  0  0
    4.0904   -0.2451    0.0000 C   0  0  0  0  0  0  0  0  0  0  0  0
    2.7943    1.3218    0.0000 C   0  0  0  0  0  0  0  0  0  0  0  0
    5.0824    0.6434    0.0000 C   0  0  0  0  0  0  0  0  0  0  0  0
    2.7374   -0.4162    0.0000 H   0  0  0  0  0  0  0  0  0  0  0  0
    1.8445    1.8441    0.0000 H   0  0  0  0  0  0  0  0  0  0  0  0
    1.2518   -0.4054    0.0000 H   0  0  0  0  0  0  0  0  0  0  0  0
    3.9117    1.6477    0.0000 H   0  0  0  0  0  0  0  0  0  0  0  0
    3.1754    1.9087    0.0000 H   0  0  0  0  0  0  0  0  0  0  0  0
    3.7802   -0.7818    0.0000 H   0  0  0  0  0  0  0  0  0  0  0  0
    4.6272   -0.5553    0.0000 H   0  0  0  0  0  0  0  0  0  0  0  0
    3.3693    1.5538    0.0000 H   0  0  0  0  0  0  0  0  0  0  0  0
    2.5624    1.8968    0.0000 H   0  0  0  0  0  0  0  0  0  0  0  0
    2.2194    1.0898    0.0000 H   0  0  0  0  0  0  0  0  0  0  0  0
    4.4007    0.2917    0.0000 H   0  0  0  0  0  0  0  0  0  0  0  0
    5.1213    0.0247    0.0000 H   0  0  0  0  0  0  0  0  0  0  0  0
    5.7011    0.6824    0.0000 H   0  0  0  0  0  0  0  0  0  0  0  0
    5.0434    1.2622    0.0000 H   0  0  0  0  0  0  0  0  0  0  0  0
  1  8  2  0  0  0  0
  2  3  1  0  0  0  0
  2  4  1  0  0  0  0
  2  5  1  0  0  0  0
  2 12  1  0  0  0  0
  3  4  1  0  0  0  0
  3  7  1  0  0  0  0
  3 13  1  0  0  0  0
  4  8  1  0  0  0  0
  4 14  1  0  0  0  0
  5  6  1  0  0  0  0
  5  9  1  0  0  0  0
  5 10  1  0  0  0  0
  6  7  1  0  0  0  0
  6  8  1  0  0  0  0
  6 11  1  0  0  0  0
  7 15  1  0  0  0  0
  7 16  1  0  0  0  0
  9 17  1  0  0  0  0
  9 18  1  0  0  0  0
  9 22  1  0  0  0  0
 10 19  1  0  0  0  0
 10 20  1  0  0  0  0
 10 21  1  0  0  0  0
 11 23  1  0  0  0  0
 11 24  1  0  0  0  0
 11 25  1  0  0  0  0
M  END
> <PUBCHEM_COMPOUND_CID>
13409

> <PUBCHEM_COMPOUND_CANONICALIZED>
1

> <PUBCHEM_CACTVS_COMPLEXITY>
266

> <PUBCHEM_CACTVS_HBOND_ACCEPTOR>
1

> <PUBCHEM_CACTVS_HBOND_DONOR>
0

> <PUBCHEM_CACTVS_ROTATABLE_BOND>
0

> <PUBCHEM_CACTVS_SUBSKEYS>
AAADccBwIAAAAAAAAAAAAAAAGAAAAYMGAAAAAAAAAAAAAAAAAAAAGgAAAAAADwSAgAACAAAAAAAIAIAQAAAAAAAAAAAAAAEAAAAAABIAAAAAAAAAAAAAAAEIiMCPgAAAAAAAAACAAAQAACAAAQAACAAAAA==

> <PUBCHEM_IUPAC_OPENEYE_NAME>
4,7,7-trimethyl-1,2,5,6-tetrahydrotricyclo[2.2.1.0^{2,6}]heptan-3-one

> <PUBCHEM_IUPAC_CAS_NAME>
4,7,7-trimethyl-1,2,5,6-tetrahydrotricyclo[2.2.1.0^{2,6}]heptan-3-one

> <PUBCHEM_IUPAC_NAME>
4,7,7-trimethyl-1,2,5,6-tetrahydrotricyclo[2.2.1.0^{2,6}]heptan-3-one

> <PUBCHEM_IUPAC_SYSTEMATIC_NAME>
4,7,7-trimethyl-1,2,5,6-tetrahydrotricyclo[2.2.1.0^{2,6}]heptan-3-one

> <PUBCHEM_IUPAC_TRADITIONAL_NAME>
4,7,7-trimethyl-1,2,5,6-tetrahydrotricyclo[2.2.1.0^{2,6}]heptan-3-one

> <PUBCHEM_IUPAC_INCHI>
InChI=1S/C10H14O/c1-9(2)7-5-4-10(9,3)8(11)6(5)7/h5-7H,4H2,1-3H3

> <PUBCHEM_IUPAC_INCHIKEY>
OSGFZBRRGSITSR-UHFFFAOYSA-N

> <PUBCHEM_XLOGP3_AA>
1.7

> <PUBCHEM_EXACT_MASS>
150.104465

> <PUBCHEM_MOLECULAR_FORMULA>
C10H14O

> <PUBCHEM_MOLECULAR_WEIGHT>
150.21756

> <PUBCHEM_OPENEYE_CAN_SMILES>
CC1(C2C3C2C(=O)C1(C3)C)C

> <PUBCHEM_OPENEYE_ISO_SMILES>
CC1(C2C3C2C(=O)C1(C3)C)C

> <PUBCHEM_CACTVS_TPSA>
17.1

> <PUBCHEM_MONOISOTOPIC_WEIGHT>
150.104465

> <PUBCHEM_TOTAL_CHARGE>
0

> <PUBCHEM_HEAVY_ATOM_COUNT>
11

> <PUBCHEM_ATOM_DEF_STEREO_COUNT>
0

> <PUBCHEM_ATOM_UDEF_STEREO_COUNT>
4

> <PUBCHEM_BOND_DEF_STEREO_COUNT>
0

> <PUBCHEM_BOND_UDEF_STEREO_COUNT>
0

> <PUBCHEM_ISOTOPIC_ATOM_COUNT>
0

> <PUBCHEM_COMPONENT_COUNT>
1

> <PUBCHEM_CACTVS_TAUTO_COUNT>
1

> <PUBCHEM_COORDINATE_TYPE>
1
5
255

> <PUBCHEM_BONDANNOTATIONS>
2  12  3
3  13  3
4  14  3
6  11  3

$$$$

