8380
  -OEChem-06261202472D

 72 72  0     0  0  0  0  0  0999 V2000
   12.3923   -2.0000    0.0000 O   0  0  0  0  0  0  0  0  0  0  0  0
    8.9282   -4.0000    0.0000 O   0  0  0  0  0  0  0  0  0  0  0  0
   10.6603   -2.0000    0.0000 O   0  0  0  0  0  0  0  0  0  0  0  0
    9.7942   -2.5000    0.0000 O   0  0  0  0  0  0  0  0  0  0  0  0
   14.1244    2.0000    0.0000 C   0  0  0  0  0  0  0  0  0  0  0  0
   14.9904    2.5000    0.0000 C   0  0  0  0  0  0  0  0  0  0  0  0
   14.1244    1.0000    0.0000 C   0  0  0  0  0  0  0  0  0  0  0  0
   14.9904    3.5000    0.0000 C   0  0  0  0  0  0  0  0  0  0  0  0
   13.2583    0.5000    0.0000 C   0  0  0  0  0  0  0  0  0  0  0  0
   15.8564    4.0000    0.0000 C   0  0  0  0  0  0  0  0  0  0  0  0
   13.2583   -0.5000    0.0000 C   0  0  0  0  0  0  0  0  0  0  0  0
    5.4641   -4.0000    0.0000 C   0  0  0  0  0  0  0  0  0  0  0  0
    4.5981   -3.5000    0.0000 C   0  0  0  0  0  0  0  0  0  0  0  0
    6.3301   -3.5000    0.0000 C   0  0  0  0  0  0  0  0  0  0  0  0
    3.7320   -4.0000    0.0000 C   0  0  0  0  0  0  0  0  0  0  0  0
   15.8564    5.0000    0.0000 C   0  0  0  0  0  0  0  0  0  0  0  0
    7.1962   -4.0000    0.0000 C   0  0  0  0  0  0  0  0  0  0  0  0
   12.3923   -1.0000    0.0000 C   0  0  0  0  0  0  0  0  0  0  0  0
    2.8660   -3.5000    0.0000 C   0  0  0  0  0  0  0  0  0  0  0  0
    8.0622   -3.5000    0.0000 C   0  0  0  0  0  0  0  0  0  0  0  0
   16.7224    5.5000    0.0000 C   0  0  0  0  0  0  0  0  0  0  0  0
    2.0000   -4.0000    0.0000 C   0  0  0  0  0  0  0  0  0  0  0  0
   11.5263   -2.5000    0.0000 C   0  0  0  0  0  0  0  0  0  0  0  0
   11.5263   -3.5000    0.0000 C   0  0  0  0  0  0  0  0  0  0  0  0
   10.6603   -4.0000    0.0000 C   0  0  0  0  0  0  0  0  0  0  0  0
    9.7942   -3.5000    0.0000 C   0  0  0  0  0  0  0  0  0  0  0  0
   12.3923   -4.0000    0.0000 C   0  0  0  0  0  0  0  0  0  0  0  0
   10.6603   -5.0000    0.0000 C   0  0  0  0  0  0  0  0  0  0  0  0
   12.3923   -5.0000    0.0000 C   0  0  0  0  0  0  0  0  0  0  0  0
   11.5263   -5.5000    0.0000 C   0  0  0  0  0  0  0  0  0  0  0  0
   13.9123    2.5826    0.0000 H   0  0  0  0  0  0  0  0  0  0  0  0
   13.5138    1.8923    0.0000 H   0  0  0  0  0  0  0  0  0  0  0  0
   15.2024    1.9174    0.0000 H   0  0  0  0  0  0  0  0  0  0  0  0
   15.6010    2.6077    0.0000 H   0  0  0  0  0  0  0  0  0  0  0  0
   14.3364    0.4174    0.0000 H   0  0  0  0  0  0  0  0  0  0  0  0
   14.7349    1.1077    0.0000 H   0  0  0  0  0  0  0  0  0  0  0  0
   14.7783    4.0826    0.0000 H   0  0  0  0  0  0  0  0  0  0  0  0
   14.3798    3.3923    0.0000 H   0  0  0  0  0  0  0  0  0  0  0  0
   13.0463    1.0826    0.0000 H   0  0  0  0  0  0  0  0  0  0  0  0
   12.6477    0.3923    0.0000 H   0  0  0  0  0  0  0  0  0  0  0  0
   16.0685    3.4174    0.0000 H   0  0  0  0  0  0  0  0  0  0  0  0
   16.4670    4.1077    0.0000 H   0  0  0  0  0  0  0  0  0  0  0  0
   13.4704   -1.0826    0.0000 H   0  0  0  0  0  0  0  0  0  0  0  0
   13.8689   -0.3923    0.0000 H   0  0  0  0  0  0  0  0  0  0  0  0
    5.0656   -4.4750    0.0000 H   0  0  0  0  0  0  0  0  0  0  0  0
    5.8626   -4.4750    0.0000 H   0  0  0  0  0  0  0  0  0  0  0  0
    4.9966   -3.0250    0.0000 H   0  0  0  0  0  0  0  0  0  0  0  0
    4.1996   -3.0250    0.0000 H   0  0  0  0  0  0  0  0  0  0  0  0
    6.7287   -3.0250    0.0000 H   0  0  0  0  0  0  0  0  0  0  0  0
    5.9316   -3.0250    0.0000 H   0  0  0  0  0  0  0  0  0  0  0  0
    3.3335   -4.4750    0.0000 H   0  0  0  0  0  0  0  0  0  0  0  0
    4.1306   -4.4750    0.0000 H   0  0  0  0  0  0  0  0  0  0  0  0
   15.6444    5.5826    0.0000 H   0  0  0  0  0  0  0  0  0  0  0  0
   15.2458    4.8923    0.0000 H   0  0  0  0  0  0  0  0  0  0  0  0
    6.7976   -4.4750    0.0000 H   0  0  0  0  0  0  0  0  0  0  0  0
    7.5947   -4.4750    0.0000 H   0  0  0  0  0  0  0  0  0  0  0  0
   12.1803   -0.4174    0.0000 H   0  0  0  0  0  0  0  0  0  0  0  0
   11.7817   -1.1077    0.0000 H   0  0  0  0  0  0  0  0  0  0  0  0
    3.2646   -3.0250    0.0000 H   0  0  0  0  0  0  0  0  0  0  0  0
    2.4675   -3.0250    0.0000 H   0  0  0  0  0  0  0  0  0  0  0  0
    8.4607   -3.0250    0.0000 H   0  0  0  0  0  0  0  0  0  0  0  0
    7.6636   -3.0250    0.0000 H   0  0  0  0  0  0  0  0  0  0  0  0
   17.0324    4.9631    0.0000 H   0  0  0  0  0  0  0  0  0  0  0  0
   17.2594    5.8100    0.0000 H   0  0  0  0  0  0  0  0  0  0  0  0
   16.4124    6.0369    0.0000 H   0  0  0  0  0  0  0  0  0  0  0  0
    1.6900   -3.4631    0.0000 H   0  0  0  0  0  0  0  0  0  0  0  0
    1.4631   -4.3100    0.0000 H   0  0  0  0  0  0  0  0  0  0  0  0
    2.3100   -4.5369    0.0000 H   0  0  0  0  0  0  0  0  0  0  0  0
   12.9292   -3.6900    0.0000 H   0  0  0  0  0  0  0  0  0  0  0  0
   10.1233   -5.3100    0.0000 H   0  0  0  0  0  0  0  0  0  0  0  0
   12.9292   -5.3100    0.0000 H   0  0  0  0  0  0  0  0  0  0  0  0
   11.5263   -6.1200    0.0000 H   0  0  0  0  0  0  0  0  0  0  0  0
  1 18  1  0  0  0  0
  1 23  1  0  0  0  0
  2 20  1  0  0  0  0
  2 26  1  0  0  0  0
  3 23  2  0  0  0  0
  4 26  2  0  0  0  0
  5  6  1  0  0  0  0
  5  7  1  0  0  0  0
  5 31  1  0  0  0  0
  5 32  1  0  0  0  0
  6  8  1  0  0  0  0
  6 33  1  0  0  0  0
  6 34  1  0  0  0  0
  7  9  1  0  0  0  0
  7 35  1  0  0  0  0
  7 36  1  0  0  0  0
  8 10  1  0  0  0  0
  8 37  1  0  0  0  0
  8 38  1  0  0  0  0
  9 11  1  0  0  0  0
  9 39  1  0  0  0  0
  9 40  1  0  0  0  0
 10 16  1  0  0  0  0
 10 41  1  0  0  0  0
 10 42  1  0  0  0  0
 11 18  1  0  0  0  0
 11 43  1  0  0  0  0
 11 44  1  0  0  0  0
 12 13  1  0  0  0  0
 12 14  1  0  0  0  0
 12 45  1  0  0  0  0
 12 46  1  0  0  0  0
 13 15  1  0  0  0  0
 13 47  1  0  0  0  0
 13 48  1  0  0  0  0
 14 17  1  0  0  0  0
 14 49  1  0  0  0  0
 14 50  1  0  0  0  0
 15 19  1  0  0  0  0
 15 51  1  0  0  0  0
 15 52  1  0  0  0  0
 16 21  1  0  0  0  0
 16 53  1  0  0  0  0
 16 54  1  0  0  0  0
 17 20  1  0  0  0  0
 17 55  1  0  0  0  0
 17 56  1  0  0  0  0
 18 57  1  0  0  0  0
 18 58  1  0  0  0  0
 19 22  1  0  0  0  0
 19 59  1  0  0  0  0
 19 60  1  0  0  0  0
 20 61  1  0  0  0  0
 20 62  1  0  0  0  0
 21 63  1  0  0  0  0
 21 64  1  0  0  0  0
 21 65  1  0  0  0  0
 22 66  1  0  0  0  0
 22 67  1  0  0  0  0
 22 68  1  0  0  0  0
 23 24  1  0  0  0  0
 24 25  1  0  0  0  0
 24 27  2  0  0  0  0
 25 26  1  0  0  0  0
 25 28  2  0  0  0  0
 27 29  1  0  0  0  0
 27 69  1  0  0  0  0
 28 30  1  0  0  0  0
 28 70  1  0  0  0  0
 29 30  2  0  0  0  0
 29 71  1  0  0  0  0
 30 72  1  0  0  0  0
M  END
> <PUBCHEM_COMPOUND_CID>
8380

> <PUBCHEM_COMPOUND_CANONICALIZED>
1

> <PUBCHEM_CACTVS_COMPLEXITY>
435

> <PUBCHEM_CACTVS_HBOND_ACCEPTOR>
4

> <PUBCHEM_CACTVS_HBOND_DONOR>
0

> <PUBCHEM_CACTVS_ROTATABLE_BOND>
20

> <PUBCHEM_CACTVS_SUBSKEYS>
AAADcfB4OAAAAAAAAAAAAAAAAAAAAAAAAAAwAAAAAAAAAAABAAAAGgAAAAAADACgmAIyCIAABACIAiDSCAACAAAkAAAIiAEACMgIJjKANRiCMQAkwAEIqYfLyKCOgAAAAAAQAAAAAAAAACAAAAAAAAAAAA==

> <PUBCHEM_IUPAC_OPENEYE_NAME>
O2-decyl O1-octyl benzene-1,2-dicarboxylate

> <PUBCHEM_IUPAC_CAS_NAME>
benzene-1,2-dicarboxylic acid O2-decyl ester O1-octyl ester

> <PUBCHEM_IUPAC_NAME>
2-O-decyl 1-O-octyl benzene-1,2-dicarboxylate

> <PUBCHEM_IUPAC_SYSTEMATIC_NAME>
O2-decyl O1-octyl benzene-1,2-dicarboxylate

> <PUBCHEM_IUPAC_TRADITIONAL_NAME>
benzene-1,2-dicarboxylic acid O2-decyl ester O1-octyl ester

> <PUBCHEM_IUPAC_INCHI>
InChI=1S/C26H42O4/c1-3-5-7-9-11-12-14-18-22-30-26(28)24-20-16-15-19-23(24)25(27)29-21-17-13-10-8-6-4-2/h15-16,19-20H,3-14,17-18,21-22H2,1-2H3

> <PUBCHEM_IUPAC_INCHIKEY>
LVAGMBHLXLZJKZ-UHFFFAOYSA-N

> <PUBCHEM_XLOGP3>
10.1

> <PUBCHEM_EXACT_MASS>
418.30831

> <PUBCHEM_MOLECULAR_FORMULA>
C26H42O4

> <PUBCHEM_MOLECULAR_WEIGHT>
418.60928

> <PUBCHEM_OPENEYE_CAN_SMILES>
CCCCCCCCCCOC(=O)C1=CC=CC=C1C(=O)OCCCCCCCC

> <PUBCHEM_OPENEYE_ISO_SMILES>
CCCCCCCCCCOC(=O)C1=CC=CC=C1C(=O)OCCCCCCCC

> <PUBCHEM_CACTVS_TPSA>
52.6

> <PUBCHEM_MONOISOTOPIC_WEIGHT>
418.30831

> <PUBCHEM_TOTAL_CHARGE>
0

> <PUBCHEM_HEAVY_ATOM_COUNT>
30

> <PUBCHEM_ATOM_DEF_STEREO_COUNT>
0

> <PUBCHEM_ATOM_UDEF_STEREO_COUNT>
0

> <PUBCHEM_BOND_DEF_STEREO_COUNT>
0

> <PUBCHEM_BOND_UDEF_STEREO_COUNT>
0

> <PUBCHEM_ISOTOPIC_ATOM_COUNT>
0

> <PUBCHEM_COMPONENT_COUNT>
1

> <PUBCHEM_CACTVS_TAUTO_COUNT>
1

> <PUBCHEM_COORDINATE_TYPE>
1
5
255

> <PUBCHEM_BONDANNOTATIONS>
24  25  8
24  27  8
25  28  8
27  29  8
28  30  8
29  30  8

$$$$

