17396046
  -OEChem-06241222543D

 51 54  0     0  0  0  0  0  0999 V2000
   -4.2230   -1.3058   -0.1605 O   0  0  0  0  0  0  0  0  0  0  0  0
    4.4906   -2.5830   -0.4849 O   0  0  0  0  0  0  0  0  0  0  0  0
    5.1647    3.7040    0.0305 O   0  0  0  0  0  0  0  0  0  0  0  0
    1.0339   -0.9670    0.8997 N   0  0  0  0  0  0  0  0  0  0  0  0
   -3.5172    0.8224    0.1704 N   0  0  0  0  0  0  0  0  0  0  0  0
   -1.8359   -1.0940    0.3253 C   0  0  0  0  0  0  0  0  0  0  0  0
   -1.2914   -0.8554    1.7415 C   0  0  0  0  0  0  0  0  0  0  0  0
   -0.8090   -0.6315   -0.7189 C   0  0  0  0  0  0  0  0  0  0  0  0
    0.0971   -1.4779    1.9100 C   0  0  0  0  0  0  0  0  0  0  0  0
    0.5621   -1.2619   -0.4604 C   0  0  0  0  0  0  0  0  0  0  0  0
    2.3684   -1.5280    1.1103 C   0  0  0  0  0  0  0  0  0  0  0  0
   -3.1980   -0.4521    0.1170 C   0  0  0  0  0  0  0  0  0  0  0  0
    3.3791   -0.6649    0.4263 C   0  0  0  0  0  0  0  0  0  0  0  0
   -5.3011   -0.4788   -0.2967 C   0  0  0  0  0  0  0  0  0  0  0  0
   -4.8655    0.8222   -0.0935 C   0  0  0  0  0  0  0  0  0  0  0  0
    4.3961   -1.2313   -0.3421 C   0  0  0  0  0  0  0  0  0  0  0  0
    3.2967    0.7209    0.5615 C   0  0  0  0  0  0  0  0  0  0  0  0
    4.2312    1.5403   -0.0718 C   0  0  0  0  0  0  0  0  0  0  0  0
    5.3308   -0.4121   -0.9753 C   0  0  0  0  0  0  0  0  0  0  0  0
   -6.6115   -0.8390   -0.5857 C   0  0  0  0  0  0  0  0  0  0  0  0
   -5.7943    1.8692   -0.1799 C   0  0  0  0  0  0  0  0  0  0  0  0
    5.2483    0.9737   -0.8401 C   0  0  0  0  0  0  0  0  0  0  0  0
   -7.5254    0.2170   -0.6686 C   0  0  0  0  0  0  0  0  0  0  0  0
   -7.1275    1.5449   -0.4701 C   0  0  0  0  0  0  0  0  0  0  0  0
    4.1463    2.9851    0.0702 C   0  0  0  0  0  0  0  0  0  0  0  0
    5.5609   -3.0765   -1.2880 C   0  0  0  0  0  0  0  0  0  0  0  0
    2.7937    3.6593    0.2736 C   0  0  0  0  0  0  0  0  0  0  0  0
   -1.9670   -2.1788    0.2009 H   0  0  0  0  0  0  0  0  0  0  0  0
   -1.2374    0.2220    1.9478 H   0  0  0  0  0  0  0  0  0  0  0  0
   -1.9767   -1.2816    2.4845 H   0  0  0  0  0  0  0  0  0  0  0  0
   -1.1515   -0.8990   -1.7262 H   0  0  0  0  0  0  0  0  0  0  0  0
   -0.7184    0.4630   -0.7000 H   0  0  0  0  0  0  0  0  0  0  0  0
    0.4581   -1.2259    2.9147 H   0  0  0  0  0  0  0  0  0  0  0  0
    0.0216   -2.5720    1.8554 H   0  0  0  0  0  0  0  0  0  0  0  0
    0.5009   -2.3457   -0.6269 H   0  0  0  0  0  0  0  0  0  0  0  0
    1.2526   -0.8603   -1.2113 H   0  0  0  0  0  0  0  0  0  0  0  0
    2.6279   -1.5200    2.1778 H   0  0  0  0  0  0  0  0  0  0  0  0
    2.4079   -2.5761    0.7899 H   0  0  0  0  0  0  0  0  0  0  0  0
    2.5236    1.1609    1.1865 H   0  0  0  0  0  0  0  0  0  0  0  0
    6.1463   -0.7801   -1.5881 H   0  0  0  0  0  0  0  0  0  0  0  0
   -6.9088   -1.8690   -0.7373 H   0  0  0  0  0  0  0  0  0  0  0  0
   -5.4971    2.9015   -0.0281 H   0  0  0  0  0  0  0  0  0  0  0  0
    5.9826    1.5974   -1.3435 H   0  0  0  0  0  0  0  0  0  0  0  0
   -8.5676    0.0016   -0.8919 H   0  0  0  0  0  0  0  0  0  0  0  0
   -7.8654    2.3401   -0.5422 H   0  0  0  0  0  0  0  0  0  0  0  0
    5.4690   -2.7490   -2.3291 H   0  0  0  0  0  0  0  0  0  0  0  0
    6.5369   -2.8292   -0.8566 H   0  0  0  0  0  0  0  0  0  0  0  0
    5.4834   -4.1688   -1.2913 H   0  0  0  0  0  0  0  0  0  0  0  0
    2.8284    4.6651   -0.1559 H   0  0  0  0  0  0  0  0  0  0  0  0
    2.0032    3.1087   -0.2435 H   0  0  0  0  0  0  0  0  0  0  0  0
    2.5747    3.7251    1.3421 H   0  0  0  0  0  0  0  0  0  0  0  0
  1 12  1  0  0  0  0
  1 14  1  0  0  0  0
  2 16  1  0  0  0  0
  2 26  1  0  0  0  0
  3 25  2  0  0  0  0
  4  9  1  0  0  0  0
  4 10  1  0  0  0  0
  4 11  1  0  0  0  0
  5 12  2  0  0  0  0
  5 15  1  0  0  0  0
  6  7  1  0  0  0  0
  6  8  1  0  0  0  0
  6 12  1  0  0  0  0
  6 28  1  0  0  0  0
  7  9  1  0  0  0  0
  7 29  1  0  0  0  0
  7 30  1  0  0  0  0
  8 10  1  0  0  0  0
  8 31  1  0  0  0  0
  8 32  1  0  0  0  0
  9 33  1  0  0  0  0
  9 34  1  0  0  0  0
 10 35  1  0  0  0  0
 10 36  1  0  0  0  0
 11 13  1  0  0  0  0
 11 37  1  0  0  0  0
 11 38  1  0  0  0  0
 13 16  2  0  0  0  0
 13 17  1  0  0  0  0
 14 15  1  0  0  0  0
 14 20  2  0  0  0  0
 15 21  2  0  0  0  0
 16 19  1  0  0  0  0
 17 18  2  0  0  0  0
 17 39  1  0  0  0  0
 18 22  1  0  0  0  0
 18 25  1  0  0  0  0
 19 22  2  0  0  0  0
 19 40  1  0  0  0  0
 20 23  1  0  0  0  0
 20 41  1  0  0  0  0
 21 24  1  0  0  0  0
 21 42  1  0  0  0  0
 22 43  1  0  0  0  0
 23 24  2  0  0  0  0
 23 44  1  0  0  0  0
 24 45  1  0  0  0  0
 25 27  1  0  0  0  0
 26 46  1  0  0  0  0
 26 47  1  0  0  0  0
 26 48  1  0  0  0  0
 27 49  1  0  0  0  0
 27 50  1  0  0  0  0
 27 51  1  0  0  0  0
M  END
> <PUBCHEM_COMPOUND_CID>
17396046

> <PUBCHEM_CONFORMER_RMSD>
0.8

> <PUBCHEM_CONFORMER_DIVERSEORDER>
2
157
37
172
96
148
162
123
67
218
216
6
84
192
161
176
185
189
154
79
201
155
217
156
191
193
111
181
19
174
86
151
149
81
207
184
200
141
101
182
68
164
135
168
209
112
127
131
147
178
146
8
153
165
63
106
18
137
73
208
118
206
107
215
199
212
158
180
21
169
175
109
117
196
166
198
167
55
203
59
53
10
95
188
145
202
69
138
222
194
5
103
36
99
159
205
211
195
85
129
80
204
114
139
219
125
65
43
187
64
14
25
49
113
75
119
102
210
83
223
50
91
116
197
48
150
92
97
143
31
133
152
163
98
183
74
177
61
171
34
38
54
44
94
72
87
41
108
120
124
221
78
27
105
213
179
160
100
26
9
115
142
39
51
47
29
56
7
62
24
173
70
170
132
90
122
214
136
40
220
32
144
190
17
20
134
71
89
77
16
15
46
126
76
42
28
60
22
121
140
30
82
130
66
35
33
88
11
57
23
45
110
128
3
1
12
186
58
4
13
52
93
104

> <PUBCHEM_MMFF94_PARTIAL_CHARGES>
32
1 -0.28
10 0.27
11 0.41
12 0.3
13 -0.14
14 0.14
15 0.23
16 0.08
17 -0.15
18 0.09
19 -0.15
2 -0.36
20 -0.15
21 -0.15
22 -0.15
23 -0.15
24 -0.15
25 0.42
26 0.28
27 0.06
3 -0.57
39 0.15
4 -0.81
40 0.15
41 0.15
42 0.15
43 0.15
44 0.15
45 0.15
5 -0.57
6 0.18
9 0.27

> <PUBCHEM_EFFECTIVE_ROTOR_COUNT>
6.2

> <PUBCHEM_PHARMACOPHORE_FEATURES>
7
1 2 acceptor
1 3 acceptor
1 4 cation
5 1 5 12 14 15 rings
6 13 16 17 18 19 22 rings
6 14 15 20 21 23 24 rings
6 4 6 7 8 9 10 rings

> <PUBCHEM_HEAVY_ATOM_COUNT>
27

> <PUBCHEM_ATOM_DEF_STEREO_COUNT>
0

> <PUBCHEM_ATOM_UDEF_STEREO_COUNT>
0

> <PUBCHEM_BOND_DEF_STEREO_COUNT>
0

> <PUBCHEM_BOND_UDEF_STEREO_COUNT>
0

> <PUBCHEM_ISOTOPIC_ATOM_COUNT>
0

> <PUBCHEM_COMPONENT_COUNT>
1

> <PUBCHEM_CACTVS_TAUTO_COUNT>
2

> <PUBCHEM_CONFORMER_ID>
0109714E00000002

> <PUBCHEM_MMFF94_ENERGY>
67.3161

> <PUBCHEM_FEATURE_SELFOVERLAP>
35.638

> <PUBCHEM_SHAPE_FINGERPRINT>
10 15 13542452181836319239
10165383 225 17489584568064165958
10378564 45 18409726292321094654
10638233 991 18412547626457695337
10673678 19 18187926127654007932
10763959 59 18412541024433766868
11135609 127 18188219706307890880
11386260 185 18408322211630271036
11408170 253 18117278280330533353
11991303 11 17458634372140833783
12166972 35 18040434420899894713
12236239 1 18060143184952166811
13878862 14 18341631316340503516
14528608 73 18413392029491017043
14556957 393 17240471521025111081
14681490 219 18410577288319853929
14931854 50 18262222332268541444
14933364 13 18411980278415499863
15003188 100 18342174444850879168
15064981 194 18269253696126436417
15183329 4 18114457946176110515
15840311 113 18413669124176274573
16067689 302 18267019458930059135
16988056 13 18341043043961960020
17844677 252 18335696169906332139
17899979 129 18337665326945160852
1813 80 4823217225316427307
18335252 114 18337960089817020789
19053607 189 18051137995204927384
1979834 28 12750973134248794200
20157964 124 18335137570823249510
20505436 4 12678878127483843826
20554085 129 16200163079961953457
21033648 29 17632289026090224432
21049683 118 17489319529183252930
21641784 216 16732973241837905969
21781051 124 16081368484779408391
21968339 14 18187645761538891896
221357 26 18339921614804114796
22289505 5 18410569583659389796
23516275 100 18058737883700211333
23559900 14 18186809101197643451
23569914 2 17622499013513088381
249057 25 17894623794599877209
249057 3 18334575772000951686
2838139 119 18413395332421120469
3004659 81 18113903813833441026
33382 64 9223235156320944469
34797466 226 18334009484947157303
394071 54 16702294620843622012
4073 2 18059289864200681938
4340502 62 10303803281483198466
44317340 157 18260548888122788601
44555599 121 18188482597093156289
46194498 28 18335701671896621358
5104073 3 17561090172097903003
5312510 48 18412544279945371001
53794403 172 17845082966028214580
5718773 13 6122241784031589948
633830 44 18342185448589129850
9658208 31 17489577944565499162

> <PUBCHEM_SHAPE_MULTIPOLES>
528.08
19.55
3.36
1.17
24.96
2.86
-0.37
4.82
7.07
-6.92
0.17
-0.52
-0.63
1.19

> <PUBCHEM_SHAPE_SELFOVERLAP>
1145.325

> <PUBCHEM_SHAPE_VOLUME>
288.5

> <PUBCHEM_COORDINATE_TYPE>
2
5
10

$$$$

