8325
  -OEChem-06261202442D

 38 41  0     0  0  0  0  0  0999 V2000
    2.9176   -3.7895    0.0000 Cl  0  0  0  0  0  0  0  0  0  0  0  0
    4.6660    0.2451    0.0000 O   0  0  0  0  0  0  0  0  0  0  0  0
    4.6660   -3.7549    0.0000 O   0  0  0  0  0  0  0  0  0  0  0  0
    8.1464    0.2997    0.0000 O   0  0  0  0  0  0  0  0  0  0  0  0
    6.4144    0.2797    0.0000 N   0  0  0  0  0  0  0  0  0  0  0  0
    5.5321   -1.2549    0.0000 C   0  0  0  0  0  0  0  0  0  0  0  0
    5.5321   -2.2549    0.0000 C   0  0  0  0  0  0  0  0  0  0  0  0
    3.8000   -1.2549    0.0000 C   0  0  0  0  0  0  0  0  0  0  0  0
    3.8000   -2.2549    0.0000 C   0  0  0  0  0  0  0  0  0  0  0  0
    4.6660   -0.7549    0.0000 C   0  0  0  0  0  0  0  0  0  0  0  0
    6.4260   -0.7202    0.0000 C   0  0  0  0  0  0  0  0  0  0  0  0
    4.6660   -2.7549    0.0000 C   0  0  0  0  0  0  0  0  0  0  0  0
    6.4260   -2.7896    0.0000 C   0  0  0  0  0  0  0  0  0  0  0  0
    7.3321   -1.2341    0.0000 C   0  0  0  0  0  0  0  0  0  0  0  0
    2.9061   -0.7202    0.0000 C   0  0  0  0  0  0  0  0  0  0  0  0
    2.9061   -2.7896    0.0000 C   0  0  0  0  0  0  0  0  0  0  0  0
    7.3321   -2.2757    0.0000 C   0  0  0  0  0  0  0  0  0  0  0  0
    2.0000   -1.2341    0.0000 C   0  0  0  0  0  0  0  0  0  0  0  0
    2.0000   -2.2757    0.0000 C   0  0  0  0  0  0  0  0  0  0  0  0
    7.2746    0.7897    0.0000 C   0  0  0  0  0  0  0  0  0  0  0  0
    7.2631    1.7896    0.0000 C   0  0  0  0  0  0  0  0  0  0  0  0
    8.1232    2.2996    0.0000 C   0  0  0  0  0  0  0  0  0  0  0  0
    6.3913    2.2796    0.0000 C   0  0  0  0  0  0  0  0  0  0  0  0
    8.1117    3.2995    0.0000 C   0  0  0  0  0  0  0  0  0  0  0  0
    6.3797    3.2795    0.0000 C   0  0  0  0  0  0  0  0  0  0  0  0
    7.2399    3.7895    0.0000 C   0  0  0  0  0  0  0  0  0  0  0  0
    6.4188   -3.4095    0.0000 H   0  0  0  0  0  0  0  0  0  0  0  0
    7.8678   -0.9220    0.0000 H   0  0  0  0  0  0  0  0  0  0  0  0
    2.9132   -0.1003    0.0000 H   0  0  0  0  0  0  0  0  0  0  0  0
    7.8678   -2.5878    0.0000 H   0  0  0  0  0  0  0  0  0  0  0  0
    5.8740    0.5835    0.0000 H   0  0  0  0  0  0  0  0  0  0  0  0
    1.4643   -0.9220    0.0000 H   0  0  0  0  0  0  0  0  0  0  0  0
    1.4643   -2.5878    0.0000 H   0  0  0  0  0  0  0  0  0  0  0  0
    8.6637    1.9958    0.0000 H   0  0  0  0  0  0  0  0  0  0  0  0
    5.8580    1.9634    0.0000 H   0  0  0  0  0  0  0  0  0  0  0  0
    8.6450    3.6157    0.0000 H   0  0  0  0  0  0  0  0  0  0  0  0
    5.8393    3.5833    0.0000 H   0  0  0  0  0  0  0  0  0  0  0  0
    7.2328    4.4094    0.0000 H   0  0  0  0  0  0  0  0  0  0  0  0
  1 16  1  0  0  0  0
  2 10  2  0  0  0  0
  3 12  2  0  0  0  0
  4 20  2  0  0  0  0
  5 11  1  0  0  0  0
  5 20  1  0  0  0  0
  5 31  1  0  0  0  0
  6  7  2  0  0  0  0
  6 10  1  0  0  0  0
  6 11  1  0  0  0  0
  7 12  1  0  0  0  0
  7 13  1  0  0  0  0
  8  9  2  0  0  0  0
  8 10  1  0  0  0  0
  8 15  1  0  0  0  0
  9 12  1  0  0  0  0
  9 16  1  0  0  0  0
 11 14  2  0  0  0  0
 13 17  2  0  0  0  0
 13 27  1  0  0  0  0
 14 17  1  0  0  0  0
 14 28  1  0  0  0  0
 15 18  2  0  0  0  0
 15 29  1  0  0  0  0
 16 19  2  0  0  0  0
 17 30  1  0  0  0  0
 18 19  1  0  0  0  0
 18 32  1  0  0  0  0
 19 33  1  0  0  0  0
 20 21  1  0  0  0  0
 21 22  2  0  0  0  0
 21 23  1  0  0  0  0
 22 24  1  0  0  0  0
 22 34  1  0  0  0  0
 23 25  2  0  0  0  0
 23 35  1  0  0  0  0
 24 26  2  0  0  0  0
 24 36  1  0  0  0  0
 25 26  1  0  0  0  0
 25 37  1  0  0  0  0
 26 38  1  0  0  0  0
M  END
> <PUBCHEM_COMPOUND_CID>
8325

> <PUBCHEM_COMPOUND_CANONICALIZED>
1

> <PUBCHEM_CACTVS_COMPLEXITY>
586

> <PUBCHEM_CACTVS_HBOND_ACCEPTOR>
3

> <PUBCHEM_CACTVS_HBOND_DONOR>
1

> <PUBCHEM_CACTVS_ROTATABLE_BOND>
2

> <PUBCHEM_CACTVS_SUBSKEYS>
AAADccB6MAAEAAAAAAAAAAAAAAAAAAAAAAAwYMGAAAAAAADBUAAAHgIQAAAADA6BmCAwwILAAACIAqVSUACCAAAlBwAIiAEAZsgIIDrBl5GEIYhglADIzccdiMCOgAAAYAATAACAAATAACYAAAAAAAAAAA==

> <PUBCHEM_IUPAC_OPENEYE_NAME>
N-(5-chloro-9,10-dioxo-1-anthryl)benzamide

> <PUBCHEM_IUPAC_CAS_NAME>
N-(5-chloro-9,10-dioxo-1-anthracenyl)benzamide

> <PUBCHEM_IUPAC_NAME>
N-(5-chloro-9,10-dioxoanthracen-1-yl)benzamide

> <PUBCHEM_IUPAC_SYSTEMATIC_NAME>
N-[5-chloranyl-9,10-bis(oxidanylidene)anthracen-1-yl]benzamide

> <PUBCHEM_IUPAC_TRADITIONAL_NAME>
N-(5-chloro-9,10-diketo-1-anthryl)benzamide

> <PUBCHEM_IUPAC_INCHI>
InChI=1S/C21H12ClNO3/c22-15-10-4-8-13-17(15)19(24)14-9-5-11-16(18(14)20(13)25)23-21(26)12-6-2-1-3-7-12/h1-11H,(H,23,26)

> <PUBCHEM_IUPAC_INCHIKEY>
VDCUNNJIPITONP-UHFFFAOYSA-N

> <PUBCHEM_XLOGP3_AA>
4.9

> <PUBCHEM_EXACT_MASS>
361.050571

> <PUBCHEM_MOLECULAR_FORMULA>
C21H12ClNO3

> <PUBCHEM_MOLECULAR_WEIGHT>
361.77788

> <PUBCHEM_OPENEYE_CAN_SMILES>
C1=CC=C(C=C1)C(=O)NC2=CC=CC3=C2C(=O)C4=C(C3=O)C(=CC=C4)Cl

> <PUBCHEM_OPENEYE_ISO_SMILES>
C1=CC=C(C=C1)C(=O)NC2=CC=CC3=C2C(=O)C4=C(C3=O)C(=CC=C4)Cl

> <PUBCHEM_CACTVS_TPSA>
63.2

> <PUBCHEM_MONOISOTOPIC_WEIGHT>
361.050571

> <PUBCHEM_TOTAL_CHARGE>
0

> <PUBCHEM_HEAVY_ATOM_COUNT>
26

> <PUBCHEM_ATOM_DEF_STEREO_COUNT>
0

> <PUBCHEM_ATOM_UDEF_STEREO_COUNT>
0

> <PUBCHEM_BOND_DEF_STEREO_COUNT>
0

> <PUBCHEM_BOND_UDEF_STEREO_COUNT>
0

> <PUBCHEM_ISOTOPIC_ATOM_COUNT>
0

> <PUBCHEM_COMPONENT_COUNT>
1

> <PUBCHEM_CACTVS_TAUTO_COUNT>
6

> <PUBCHEM_COORDINATE_TYPE>
1
5
255

> <PUBCHEM_BONDANNOTATIONS>
11  14  8
13  17  8
14  17  8
15  18  8
16  19  8
18  19  8
21  22  8
21  23  8
22  24  8
23  25  8
24  26  8
25  26  8
6  11  8
6  7  8
7  13  8
8  15  8
8  9  8
9  16  8

$$$$

