4729
  -OEChem-06261200193D

 40 42  0     1  0  0  0  0  0999 V2000
    2.2027    0.3515    1.9185 S   0  0  0  0  0  0  0  0  0  0  0  0
    2.1825    1.8833   -2.1861 O   0  0  0  0  0  0  0  0  0  0  0  0
    2.6055   -2.5303    0.3426 O   0  5  0  0  0  0  0  0  0  0  0  0
    4.0818   -2.4570   -1.4037 O   0  0  0  0  0  0  0  0  0  0  0  0
   -1.7844    1.5762    1.3882 O   0  0  0  0  0  0  0  0  0  0  0  0
    2.0348    0.0734   -0.6810 N   0  0  0  0  0  0  0  0  0  0  0  0
   -0.7288    1.5011   -0.6771 N   0  0  0  0  0  0  0  0  0  0  0  0
    1.1176    0.2064    0.4497 C   0  0  2  0  0  0  0  0  0  0  0  0
    3.7767    0.1178    0.9517 C   0  0  0  0  0  0  0  0  0  0  0  0
    3.3662   -0.4412   -0.4330 C   0  0  1  0  0  0  0  0  0  0  0  0
    0.6482    1.5308   -0.1758 C   0  0  1  0  0  0  0  0  0  0  0  0
    1.7097    1.2630   -1.2611 C   0  0  0  0  0  0  0  0  0  0  0  0
    4.4412    1.4985    0.8142 C   0  0  0  0  0  0  0  0  0  0  0  0
    4.7110   -0.8019    1.7462 C   0  0  0  0  0  0  0  0  0  0  0  0
    3.3483   -1.9599   -0.5037 C   0  0  0  0  0  0  0  0  0  0  0  0
   -1.8442    1.5269    0.1623 C   0  0  0  0  0  0  0  0  0  0  0  0
   -3.1452    1.4844   -0.6152 C   0  0  0  0  0  0  0  0  0  0  0  0
   -4.0013    0.2918   -0.2804 C   0  0  0  0  0  0  0  0  0  0  0  0
   -3.8468   -0.8840   -1.0014 C   0  0  0  0  0  0  0  0  0  0  0  0
   -4.9323    0.3850    0.7446 C   0  0  0  0  0  0  0  0  0  0  0  0
   -4.6396   -1.9889   -0.6913 C   0  0  0  0  0  0  0  0  0  0  0  0
   -5.7250   -0.7200    1.0548 C   0  0  0  0  0  0  0  0  0  0  0  0
   -5.5785   -1.9070    0.3368 C   0  0  0  0  0  0  0  0  0  0  0  0
    0.3836   -0.6039    0.4955 H   0  0  0  0  0  0  0  0  0  0  0  0
    4.0366   -0.0518   -1.2101 H   0  0  0  0  0  0  0  0  0  0  0  0
    0.8520    2.4411    0.3989 H   0  0  0  0  0  0  0  0  0  0  0  0
    5.3724    1.4194    0.2406 H   0  0  0  0  0  0  0  0  0  0  0  0
    3.8043    2.2243    0.2982 H   0  0  0  0  0  0  0  0  0  0  0  0
    4.6996    1.9226    1.7919 H   0  0  0  0  0  0  0  0  0  0  0  0
    5.0541   -0.3168    2.6685 H   0  0  0  0  0  0  0  0  0  0  0  0
    4.2455   -1.7457    2.0458 H   0  0  0  0  0  0  0  0  0  0  0  0
    5.6059   -1.0410    1.1599 H   0  0  0  0  0  0  0  0  0  0  0  0
   -0.8871    1.4594   -1.6810 H   0  0  0  0  0  0  0  0  0  0  0  0
   -3.6877    2.4123   -0.3918 H   0  0  0  0  0  0  0  0  0  0  0  0
   -2.9659    1.5115   -1.6969 H   0  0  0  0  0  0  0  0  0  0  0  0
   -3.1165   -0.9582   -1.8022 H   0  0  0  0  0  0  0  0  0  0  0  0
   -5.0531    1.3041    1.3111 H   0  0  0  0  0  0  0  0  0  0  0  0
   -4.5251   -2.9133   -1.2498 H   0  0  0  0  0  0  0  0  0  0  0  0
   -6.4559   -0.6566    1.8557 H   0  0  0  0  0  0  0  0  0  0  0  0
   -6.1955   -2.7675    0.5786 H   0  0  0  0  0  0  0  0  0  0  0  0
  1  8  1  0  0  0  0
  1  9  1  0  0  0  0
  2 12  2  0  0  0  0
  3 15  1  0  0  0  0
  4 15  2  0  0  0  0
  5 16  2  0  0  0  0
  6  8  1  0  0  0  0
  6 10  1  0  0  0  0
  6 12  1  0  0  0  0
  7 11  1  0  0  0  0
  7 16  1  0  0  0  0
  7 33  1  0  0  0  0
  8 11  1  0  0  0  0
  8 24  1  0  0  0  0
  9 10  1  0  0  0  0
  9 13  1  0  0  0  0
  9 14  1  0  0  0  0
 10 15  1  0  0  0  0
 10 25  1  0  0  0  0
 11 12  1  0  0  0  0
 11 26  1  0  0  0  0
 13 27  1  0  0  0  0
 13 28  1  0  0  0  0
 13 29  1  0  0  0  0
 14 30  1  0  0  0  0
 14 31  1  0  0  0  0
 14 32  1  0  0  0  0
 16 17  1  0  0  0  0
 17 18  1  0  0  0  0
 17 34  1  0  0  0  0
 17 35  1  0  0  0  0
 18 19  2  0  0  0  0
 18 20  1  0  0  0  0
 19 21  1  0  0  0  0
 19 36  1  0  0  0  0
 20 22  2  0  0  0  0
 20 37  1  0  0  0  0
 21 23  2  0  0  0  0
 21 38  1  0  0  0  0
 22 23  1  0  0  0  0
 22 39  1  0  0  0  0
 23 40  1  0  0  0  0
M  CHG  1   3  -1
M  END
> <PUBCHEM_COMPOUND_CID>
4729

> <PUBCHEM_CONFORMER_RMSD>
0.8

> <PUBCHEM_CONFORMER_DIVERSEORDER>
1
68
9
67
27
114
65
121
57
99
122
15
107
16
79
40
105
56
92
39
117
41
47
52
55
70
106
44
88
7
125
11
87
58
119
30
73
26
120
97
24
48
102
94
91
2
42
113
46
43
95
17
108
71
38
36
82
18
63
62
6
103
20
10
28
111
112
29
83
80
64
127
4
75
90
69
61
31
78
93
126
96
54
12
72
51
60
118
19
115
13
34
50
86
77
123
124
104
74
109
81
59
14
98
37
32
101
100
8
76
116
128
21
85
53
23
22
66
5
35
49
25
45
110
3
84
89
33

> <PUBCHEM_MMFF94_PARTIAL_CHARGES>
27
1 -0.45
10 0.19
11 0.28
12 0.58
15 0.91
16 0.57
17 0.2
18 -0.14
19 -0.15
2 -0.57
20 -0.15
21 -0.15
22 -0.15
23 -0.15
3 -0.9
33 0.37
36 0.15
37 0.15
38 0.15
39 0.15
4 -0.9
40 0.15
5 -0.57
6 -0.59
7 -0.65
8 0.44
9 0.23

> <PUBCHEM_EFFECTIVE_ROTOR_COUNT>
5.8

> <PUBCHEM_PHARMACOPHORE_FEATURES>
10
1 2 acceptor
1 3 acceptor
1 4 acceptor
1 5 acceptor
1 7 donor
3 3 4 15 anion
3 9 13 14 hydrophobe
4 6 8 11 12 rings
6 18 19 20 21 22 23 rings
7 1 6 8 9 10 11 12 rings

> <PUBCHEM_HEAVY_ATOM_COUNT>
23

> <PUBCHEM_ATOM_DEF_STEREO_COUNT>
0

> <PUBCHEM_ATOM_UDEF_STEREO_COUNT>
3

> <PUBCHEM_BOND_DEF_STEREO_COUNT>
0

> <PUBCHEM_BOND_UDEF_STEREO_COUNT>
0

> <PUBCHEM_ISOTOPIC_ATOM_COUNT>
0

> <PUBCHEM_COMPONENT_COUNT>
1

> <PUBCHEM_CACTVS_TAUTO_COUNT>
2

> <PUBCHEM_CONFORMER_ID>
0000127900000001

> <PUBCHEM_MMFF94_ENERGY>
62.0599

> <PUBCHEM_FEATURE_SELFOVERLAP>
54.769

> <PUBCHEM_SHAPE_FINGERPRINT>
10670039 82 10735613413565551879
11069576 57 15840724022526422394
11089746 13 9151176424064058841
11370993 144 17603866749744757737
11552529 35 16371871529906487207
11796584 16 18271816747930357361
12616971 3 17846493734426008681
12633257 1 15791740710578293487
13551218 46 18334851719797604023
13583140 156 17822875163198076057
13911882 115 18335980896115569074
1420 369 18411698790295456851
14251740 57 18333444344033199831
14341114 176 17603302669640197656
146900 427 17604155800785745008
14848178 5 18413113853249656239
14863182 85 18408600336590253046
14957384 54 9943808872139370529
15183329 4 10879725315838335488
15238133 3 7709469298823900230
15342816 4 17845941835264879256
15537594 2 18261101942582596263
16126227 98 17610637314990792856
17349148 13 18131353011615077105
17857418 61 18340210696347267631
1813 80 17917710201915428485
193927 3 18201431472434049075
200 152 17704076187839744673
20626108 58 17846512447181851072
20645477 70 17775275032835833189
21315759 227 17987801804802290763
21452121 103 10303805459189736990
21673915 165 18335425655565140375
22289505 5 10231754518114348258
23503958 8 18188769582053549257
23559900 14 18261400012959640240
25222932 49 17531818926367291695
3004659 81 18201996616946966765
312425 54 17821722841396090931
316301 35 18337675346819285442
339767 52 18340502113951722423
4340502 62 18113626664568493634
44062 13 17988085612109273509
463206 1 18341049602107742195
5104073 3 17968097589542001747

> <PUBCHEM_SHAPE_MULTIPOLES>
443.74
13.07
2.43
1.61
12.2
1
0.05
6.35
2.79
-0.6
-0.67
-1.29
-0.21
0.11

> <PUBCHEM_SHAPE_SELFOVERLAP>
932.24

> <PUBCHEM_SHAPE_VOLUME>
251.6

> <PUBCHEM_COORDINATE_TYPE>
2
5
10

$$$$

