12137
  -OEChem-06261206343D

 29 30  0     0  0  0  0  0  0999 V2000
    5.0406   -0.2398    0.3643 N   0  0  0  0  0  0  0  0  0  0  0  0
   -0.4763   -0.0439   -0.5661 N   0  0  0  0  0  0  0  0  0  0  0  0
   -1.0936   -0.0323    0.5248 N   0  0  0  0  0  0  0  0  0  0  0  0
    3.6513   -0.1901    0.1283 C   0  0  0  0  0  0  0  0  0  0  0  0
    0.9090   -0.0927   -0.3340 C   0  0  0  0  0  0  0  0  0  0  0  0
    2.9229   -1.3728    0.0014 C   0  0  0  0  0  0  0  0  0  0  0  0
    3.0051    1.0415    0.0234 C   0  0  0  0  0  0  0  0  0  0  0  0
    1.5483   -1.3241   -0.2304 C   0  0  0  0  0  0  0  0  0  0  0  0
    1.6304    1.0904   -0.2082 C   0  0  0  0  0  0  0  0  0  0  0  0
   -2.4718    0.0165    0.2944 C   0  0  0  0  0  0  0  0  0  0  0  0
    5.9428    0.7728   -0.0904 C   0  0  0  0  0  0  0  0  0  0  0  0
   -3.2004   -1.1664    0.1690 C   0  0  0  0  0  0  0  0  0  0  0  0
   -3.1182    1.2480    0.1898 C   0  0  0  0  0  0  0  0  0  0  0  0
   -4.5753   -1.1177   -0.0610 C   0  0  0  0  0  0  0  0  0  0  0  0
   -4.4931    1.2968   -0.0400 C   0  0  0  0  0  0  0  0  0  0  0  0
   -5.2217    0.1139   -0.1654 C   0  0  0  0  0  0  0  0  0  0  0  0
    3.4144   -2.3392    0.0808 H   0  0  0  0  0  0  0  0  0  0  0  0
    3.5426    1.9799    0.1260 H   0  0  0  0  0  0  0  0  0  0  0  0
    0.9885   -2.2504   -0.3286 H   0  0  0  0  0  0  0  0  0  0  0  0
    1.1340    2.0540   -0.2871 H   0  0  0  0  0  0  0  0  0  0  0  0
    5.4282   -1.1578    0.5575 H   0  0  0  0  0  0  0  0  0  0  0  0
   -2.7058   -2.1310    0.2496 H   0  0  0  0  0  0  0  0  0  0  0  0
   -2.5594    2.1753    0.2868 H   0  0  0  0  0  0  0  0  0  0  0  0
    5.8131    0.9758   -1.1585 H   0  0  0  0  0  0  0  0  0  0  0  0
    6.9751    0.4407    0.0600 H   0  0  0  0  0  0  0  0  0  0  0  0
    5.8180    1.7036    0.4717 H   0  0  0  0  0  0  0  0  0  0  0  0
   -5.1426   -2.0387   -0.1585 H   0  0  0  0  0  0  0  0  0  0  0  0
   -4.9965    2.2557   -0.1212 H   0  0  0  0  0  0  0  0  0  0  0  0
   -6.2922    0.1518   -0.3443 H   0  0  0  0  0  0  0  0  0  0  0  0
  1  4  1  0  0  0  0
  1 11  1  0  0  0  0
  1 21  1  0  0  0  0
  2  3  2  0  0  0  0
  2  5  1  0  0  0  0
  3 10  1  0  0  0  0
  4  6  2  0  0  0  0
  4  7  1  0  0  0  0
  5  8  2  0  0  0  0
  5  9  1  0  0  0  0
  6  8  1  0  0  0  0
  6 17  1  0  0  0  0
  7  9  2  0  0  0  0
  7 18  1  0  0  0  0
  8 19  1  0  0  0  0
  9 20  1  0  0  0  0
 10 12  2  0  0  0  0
 10 13  1  0  0  0  0
 11 24  1  0  0  0  0
 11 25  1  0  0  0  0
 11 26  1  0  0  0  0
 12 14  1  0  0  0  0
 12 22  1  0  0  0  0
 13 15  2  0  0  0  0
 13 23  1  0  0  0  0
 14 16  2  0  0  0  0
 14 27  1  0  0  0  0
 15 16  1  0  0  0  0
 15 28  1  0  0  0  0
 16 29  1  0  0  0  0
M  END
> <PUBCHEM_COMPOUND_CID>
12137

> <PUBCHEM_CONFORMER_RMSD>
0.6

> <PUBCHEM_CONFORMER_DIVERSEORDER>
1
3
2

> <PUBCHEM_MMFF94_PARTIAL_CHARGES>
26
1 -0.87
10 0.18
11 0.37
12 -0.15
13 -0.15
14 -0.15
15 -0.15
16 -0.15
17 0.15
18 0.15
19 0.15
2 -0.18
20 0.15
21 0.4
22 0.15
23 0.15
27 0.15
28 0.15
29 0.15
3 -0.18
4 0.1
5 0.18
6 -0.15
7 -0.15
8 -0.15
9 -0.15

> <PUBCHEM_EFFECTIVE_ROTOR_COUNT>
3

> <PUBCHEM_PHARMACOPHORE_FEATURES>
4
1 1 cation
1 1 donor
6 10 12 13 14 15 16 rings
6 4 5 6 7 8 9 rings

> <PUBCHEM_HEAVY_ATOM_COUNT>
16

> <PUBCHEM_ATOM_DEF_STEREO_COUNT>
0

> <PUBCHEM_ATOM_UDEF_STEREO_COUNT>
0

> <PUBCHEM_BOND_DEF_STEREO_COUNT>
0

> <PUBCHEM_BOND_UDEF_STEREO_COUNT>
0

> <PUBCHEM_ISOTOPIC_ATOM_COUNT>
0

> <PUBCHEM_COMPONENT_COUNT>
1

> <PUBCHEM_CACTVS_TAUTO_COUNT>
2

> <PUBCHEM_CONFORMER_ID>
00002F6900000001

> <PUBCHEM_MMFF94_ENERGY>
54.2929

> <PUBCHEM_FEATURE_SELFOVERLAP>
20.297

> <PUBCHEM_SHAPE_FINGERPRINT>
10014705 185 18271809060065692957
10366900 7 16225770730951978539
11401426 45 18272652350464841779
12107183 9 17691126358482387969
12236239 1 17967814955092932038
12507557 5 18334012778817951225
12815109 37 18131634486565316143
13167823 11 18411140238288553715
14123238 8 18410575088958059201
14251718 22 18410855447253828914
15196674 1 18410292548919409266
17834072 33 18410573959687732524
19489759 90 18411140238356800873
200 152 18186804681965815699
20279233 1 18130779070951199347
20645477 56 18341612655361696949
20645477 70 18189333631450474926
21267235 1 18410002226378601663
21709351 56 18411987931351000036
22485316 2 18343302595362821899
23402539 116 18342463638247655357
23402655 69 18334858337413324527
23559900 14 18337398153813770633
26918003 58 18413671296859715019
300161 21 18343306985003813311
33824 294 18342176704463054650
351380 180 18412265034182806713
3545911 37 18409165519741915033
42 15 18342737425042949975
4214541 1 18411418427794377633
42788 4 18410856559993243440
5104073 3 18410291453755399795
542803 24 17632573851046395548
69090 78 18411702088941298363
77779 3 18410291423933103983
9709674 26 18410284818411273935
9971528 1 17988921210638856582

> <PUBCHEM_SHAPE_MULTIPOLES>
314.33
12.83
1.42
0.66
2.52
0.06
0.01
-1.48
-0.29
-0.32
0.02
-0.02
0
-0.04

> <PUBCHEM_SHAPE_SELFOVERLAP>
669.923

> <PUBCHEM_SHAPE_VOLUME>
175

> <PUBCHEM_COORDINATE_TYPE>
2
5
10

$$$$

