17396037
  -OEChem-06241222542D

 41 44  0     0  0  0  0  0  0999 V2000
    4.5274    1.9374    0.0000 S   0  0  0  0  0  0  0  0  0  0  0  0
    8.7040    0.2843    0.0000 S   0  0  0  0  0  0  0  0  0  0  0  0
    5.3923   -1.3336    0.0000 O   0  0  0  0  0  0  0  0  0  0  0  0
    5.0274    0.3985    0.0000 N   0  0  0  0  0  0  0  0  0  0  0  0
    6.3518    1.5819    0.0000 N   0  0  0  0  0  0  0  0  0  0  0  0
    3.3424   -0.3862    0.0000 C   0  0  0  0  0  0  0  0  0  0  0  0
    4.0274    0.3985    0.0000 C   0  0  0  0  0  0  0  0  0  0  0  0
    2.3219   -0.1775    0.0000 C   0  0  0  0  0  0  0  0  0  0  0  0
    2.0000    0.8132    0.0000 C   0  0  0  0  0  0  0  0  0  0  0  0
    2.7029    1.5819    0.0000 C   0  0  0  0  0  0  0  0  0  0  0  0
    3.7183    1.3496    0.0000 C   0  0  0  0  0  0  0  0  0  0  0  0
    5.3364    1.3496    0.0000 C   0  0  0  0  0  0  0  0  0  0  0  0
    5.7123   -0.3862    0.0000 C   0  0  0  0  0  0  0  0  0  0  0  0
    7.0547    0.8132    0.0000 C   0  0  0  0  0  0  0  0  0  0  0  0
    6.7328   -0.1775    0.0000 C   0  0  0  0  0  0  0  0  0  0  0  0
    8.0321    1.0248    0.0000 C   0  0  0  0  0  0  0  0  0  0  0  0
    9.6814    0.4960    0.0000 C   0  0  0  0  0  0  0  0  0  0  0  0
   10.3534   -0.2446    0.0000 C   0  0  0  0  0  0  0  0  0  0  0  0
   10.0480   -1.1968    0.0000 C   0  0  0  0  0  0  0  0  0  0  0  0
   11.3307   -0.0329    0.0000 C   0  0  0  0  0  0  0  0  0  0  0  0
   10.7200   -1.9374    0.0000 C   0  0  0  0  0  0  0  0  0  0  0  0
   12.0027   -0.7735    0.0000 C   0  0  0  0  0  0  0  0  0  0  0  0
   11.6974   -1.7257    0.0000 C   0  0  0  0  0  0  0  0  0  0  0  0
    3.1160   -0.9634    0.0000 H   0  0  0  0  0  0  0  0  0  0  0  0
    3.8724   -0.7080    0.0000 H   0  0  0  0  0  0  0  0  0  0  0  0
    1.7081   -0.2653    0.0000 H   0  0  0  0  0  0  0  0  0  0  0  0
    2.3034   -0.7972    0.0000 H   0  0  0  0  0  0  0  0  0  0  0  0
    1.6208    1.3037    0.0000 H   0  0  0  0  0  0  0  0  0  0  0  0
    1.4518    0.5235    0.0000 H   0  0  0  0  0  0  0  0  0  0  0  0
    2.9426    2.1537    0.0000 H   0  0  0  0  0  0  0  0  0  0  0  0
    2.1806    1.9158    0.0000 H   0  0  0  0  0  0  0  0  0  0  0  0
    7.1459   -0.6398    0.0000 H   0  0  0  0  0  0  0  0  0  0  0  0
    8.5566    1.3554    0.0000 H   0  0  0  0  0  0  0  0  0  0  0  0
    7.7976    1.5988    0.0000 H   0  0  0  0  0  0  0  0  0  0  0  0
   10.2059    0.8265    0.0000 H   0  0  0  0  0  0  0  0  0  0  0  0
    9.4469    1.0699    0.0000 H   0  0  0  0  0  0  0  0  0  0  0  0
    9.4421   -1.3281    0.0000 H   0  0  0  0  0  0  0  0  0  0  0  0
   11.5200    0.5575    0.0000 H   0  0  0  0  0  0  0  0  0  0  0  0
   10.5307   -2.5278    0.0000 H   0  0  0  0  0  0  0  0  0  0  0  0
   12.6087   -0.6422    0.0000 H   0  0  0  0  0  0  0  0  0  0  0  0
   12.1140   -2.1849    0.0000 H   0  0  0  0  0  0  0  0  0  0  0  0
  1 11  1  0  0  0  0
  1 12  1  0  0  0  0
  2 16  1  0  0  0  0
  2 17  1  0  0  0  0
  3 13  2  0  0  0  0
  4  7  1  0  0  0  0
  4 12  1  0  0  0  0
  4 13  1  0  0  0  0
  5 12  2  0  0  0  0
  5 14  1  0  0  0  0
  6  7  1  0  0  0  0
  6  8  1  0  0  0  0
  6 24  1  0  0  0  0
  6 25  1  0  0  0  0
  7 11  2  0  0  0  0
  8  9  1  0  0  0  0
  8 26  1  0  0  0  0
  8 27  1  0  0  0  0
  9 10  1  0  0  0  0
  9 28  1  0  0  0  0
  9 29  1  0  0  0  0
 10 11  1  0  0  0  0
 10 30  1  0  0  0  0
 10 31  1  0  0  0  0
 13 15  1  0  0  0  0
 14 15  2  0  0  0  0
 14 16  1  0  0  0  0
 15 32  1  0  0  0  0
 16 33  1  0  0  0  0
 16 34  1  0  0  0  0
 17 18  1  0  0  0  0
 17 35  1  0  0  0  0
 17 36  1  0  0  0  0
 18 19  2  0  0  0  0
 18 20  1  0  0  0  0
 19 21  1  0  0  0  0
 19 37  1  0  0  0  0
 20 22  2  0  0  0  0
 20 38  1  0  0  0  0
 21 23  2  0  0  0  0
 21 39  1  0  0  0  0
 22 23  1  0  0  0  0
 22 40  1  0  0  0  0
 23 41  1  0  0  0  0
M  END
> <PUBCHEM_COMPOUND_CID>
17396037

> <PUBCHEM_COMPOUND_CANONICALIZED>
1

> <PUBCHEM_CACTVS_COMPLEXITY>
588

> <PUBCHEM_CACTVS_HBOND_ACCEPTOR>
4

> <PUBCHEM_CACTVS_HBOND_DONOR>
0

> <PUBCHEM_CACTVS_ROTATABLE_BOND>
4

> <PUBCHEM_CACTVS_SUBSKEYS>
AAADceB7IABgAAAAAAAAAAAAAAAAAQAAAAAwQIAAAAAAAFgBAAAAHgQAAAAADAiF2ACxAIMAAAioAiVSdACCEAFgAhAJiAAAAMgIICKgmRCEIAAghACoiUcQgAAOAAAAAAAAAAAAAAAAAAAAAAAAAAAAAA==

> <PUBCHEM_IUPAC_OPENEYE_NAME>
2-(benzylsulfanylmethyl)-6,7,8,9-tetrahydropyrimido[2,1-b][1,3]benzothiazol-4-one

> <PUBCHEM_IUPAC_CAS_NAME>
2-[(phenylmethylthio)methyl]-6,7,8,9-tetrahydropyrimido[2,1-b][1,3]benzothiazol-4-one

> <PUBCHEM_IUPAC_NAME>
2-(benzylsulfanylmethyl)-6,7,8,9-tetrahydropyrimido[2,1-b][1,3]benzothiazol-4-one

> <PUBCHEM_IUPAC_SYSTEMATIC_NAME>
2-[(phenylmethylsulfanyl)methyl]-6,7,8,9-tetrahydropyrimido[2,1-b][1,3]benzothiazol-4-one

> <PUBCHEM_IUPAC_TRADITIONAL_NAME>
2-[(benzylthio)methyl]-6,7,8,9-tetrahydropyrimido[2,1-b][1,3]benzothiazol-4-one

> <PUBCHEM_IUPAC_INCHI>
InChI=1S/C18H18N2OS2/c21-17-10-14(12-22-11-13-6-2-1-3-7-13)19-18-20(17)15-8-4-5-9-16(15)23-18/h1-3,6-7,10H,4-5,8-9,11-12H2

> <PUBCHEM_IUPAC_INCHIKEY>
NGEGZGLZFWDXLI-UHFFFAOYSA-N

> <PUBCHEM_XLOGP3_AA>
3.2

> <PUBCHEM_EXACT_MASS>
342.086055

> <PUBCHEM_MOLECULAR_FORMULA>
C18H18N2OS2

> <PUBCHEM_MOLECULAR_WEIGHT>
342.47832

> <PUBCHEM_OPENEYE_CAN_SMILES>
C1CCC2=C(C1)N3C(=O)C=C(N=C3S2)CSCC4=CC=CC=C4

> <PUBCHEM_OPENEYE_ISO_SMILES>
C1CCC2=C(C1)N3C(=O)C=C(N=C3S2)CSCC4=CC=CC=C4

> <PUBCHEM_CACTVS_TPSA>
83.3

> <PUBCHEM_MONOISOTOPIC_WEIGHT>
342.086055

> <PUBCHEM_TOTAL_CHARGE>
0

> <PUBCHEM_HEAVY_ATOM_COUNT>
23

> <PUBCHEM_ATOM_DEF_STEREO_COUNT>
0

> <PUBCHEM_ATOM_UDEF_STEREO_COUNT>
0

> <PUBCHEM_BOND_DEF_STEREO_COUNT>
0

> <PUBCHEM_BOND_UDEF_STEREO_COUNT>
0

> <PUBCHEM_ISOTOPIC_ATOM_COUNT>
0

> <PUBCHEM_COMPONENT_COUNT>
1

> <PUBCHEM_CACTVS_TAUTO_COUNT>
1

> <PUBCHEM_COORDINATE_TYPE>
1
5
255

> <PUBCHEM_BONDANNOTATIONS>
1  11  8
1  12  8
13  15  8
14  15  8
18  19  8
18  20  8
19  21  8
20  22  8
21  23  8
22  23  8
4  12  8
4  13  8
4  7  8
5  12  8
5  14  8
7  11  8

$$$$

