17395349
  -OEChem-06241222493D

 40 42  0     1  0  0  0  0  0999 V2000
    0.0309   -2.4438   -0.3954 S   0  0  0  0  0  0  0  0  0  0  0  0
   -3.2902    0.3219    2.3327 F   0  0  0  0  0  0  0  0  0  0  0  0
   -4.9493    0.6598    0.1859 F   0  0  0  0  0  0  0  0  0  0  0  0
    0.3782   -2.9794    0.9070 O   0  0  0  0  0  0  0  0  0  0  0  0
   -0.1553   -3.3347   -1.5247 O   0  0  0  0  0  0  0  0  0  0  0  0
    1.1432   -1.2549   -0.8402 N   0  0  0  0  0  0  0  0  0  0  0  0
    3.8447   -0.4191    0.6685 N   0  0  0  0  0  0  0  0  0  0  0  0
    3.3812    1.2511   -0.7199 N   0  0  0  0  0  0  0  0  0  0  0  0
    1.3954   -0.1007    0.0901 C   0  0  1  0  0  0  0  0  0  0  0  0
    2.8756    0.2692   -0.0070 C   0  0  0  0  0  0  0  0  0  0  0  0
    0.4808    1.0629   -0.0953 C   0  0  0  0  0  0  0  0  0  0  0  0
   -1.4618   -1.5129   -0.2217 C   0  0  0  0  0  0  0  0  0  0  0  0
    0.1579    1.8760    0.9911 C   0  0  0  0  0  0  0  0  0  0  0  0
   -0.0517    1.3378   -1.3547 C   0  0  0  0  0  0  0  0  0  0  0  0
    5.0446    0.1607    0.3671 C   0  0  0  0  0  0  0  0  0  0  0  0
    3.6537   -1.5523    1.5426 C   0  0  0  0  0  0  0  0  0  0  0  0
    4.7331    1.1888   -0.4914 C   0  0  0  0  0  0  0  0  0  0  0  0
   -1.7935   -0.9512    1.0113 C   0  0  0  0  0  0  0  0  0  0  0  0
   -2.3080   -1.3405   -1.3170 C   0  0  0  0  0  0  0  0  0  0  0  0
   -0.6974    2.9641    0.8179 C   0  0  0  0  0  0  0  0  0  0  0  0
   -0.9071    2.4260   -1.5279 C   0  0  0  0  0  0  0  0  0  0  0  0
   -1.2299    3.2391   -0.4416 C   0  0  0  0  0  0  0  0  0  0  0  0
   -2.9714   -0.2170    1.1487 C   0  0  0  0  0  0  0  0  0  0  0  0
   -3.4860   -0.6063   -1.1795 C   0  0  0  0  0  0  0  0  0  0  0  0
   -3.8176   -0.0445    0.0534 C   0  0  0  0  0  0  0  0  0  0  0  0
    1.2301   -0.4750    1.1090 H   0  0  0  0  0  0  0  0  0  0  0  0
    1.3842   -1.1154   -1.8290 H   0  0  0  0  0  0  0  0  0  0  0  0
    0.5661    1.6740    1.9779 H   0  0  0  0  0  0  0  0  0  0  0  0
    0.1921    0.7344   -2.2240 H   0  0  0  0  0  0  0  0  0  0  0  0
    5.9834   -0.1915    0.7715 H   0  0  0  0  0  0  0  0  0  0  0  0
    3.0115   -1.2515    2.3737 H   0  0  0  0  0  0  0  0  0  0  0  0
    3.2025   -2.3645    0.9688 H   0  0  0  0  0  0  0  0  0  0  0  0
    4.6228   -1.8767    1.9313 H   0  0  0  0  0  0  0  0  0  0  0  0
    5.4133    1.8873   -0.9563 H   0  0  0  0  0  0  0  0  0  0  0  0
   -1.1515   -1.0752    1.8787 H   0  0  0  0  0  0  0  0  0  0  0  0
   -2.0656   -1.7618   -2.2884 H   0  0  0  0  0  0  0  0  0  0  0  0
   -0.9494    3.5968    1.6639 H   0  0  0  0  0  0  0  0  0  0  0  0
   -1.3199    2.6417   -2.5090 H   0  0  0  0  0  0  0  0  0  0  0  0
   -1.8961    4.0862   -0.5764 H   0  0  0  0  0  0  0  0  0  0  0  0
   -4.1440   -0.4697   -2.0325 H   0  0  0  0  0  0  0  0  0  0  0  0
  1  4  2  0  0  0  0
  1  5  2  0  0  0  0
  1  6  1  0  0  0  0
  1 12  1  0  0  0  0
  2 23  1  0  0  0  0
  3 25  1  0  0  0  0
  6  9  1  0  0  0  0
  6 27  1  0  0  0  0
  7 10  1  0  0  0  0
  7 15  1  0  0  0  0
  7 16  1  0  0  0  0
  8 10  2  0  0  0  0
  8 17  1  0  0  0  0
  9 10  1  0  0  0  0
  9 11  1  0  0  0  0
  9 26  1  0  0  0  0
 11 13  2  0  0  0  0
 11 14  1  0  0  0  0
 12 18  2  0  0  0  0
 12 19  1  0  0  0  0
 13 20  1  0  0  0  0
 13 28  1  0  0  0  0
 14 21  2  0  0  0  0
 14 29  1  0  0  0  0
 15 17  2  0  0  0  0
 15 30  1  0  0  0  0
 16 31  1  0  0  0  0
 16 32  1  0  0  0  0
 16 33  1  0  0  0  0
 17 34  1  0  0  0  0
 18 23  1  0  0  0  0
 18 35  1  0  0  0  0
 19 24  2  0  0  0  0
 19 36  1  0  0  0  0
 20 22  2  0  0  0  0
 20 37  1  0  0  0  0
 21 22  1  0  0  0  0
 21 38  1  0  0  0  0
 22 39  1  0  0  0  0
 23 25  2  0  0  0  0
 24 25  1  0  0  0  0
 24 40  1  0  0  0  0
M  END
> <PUBCHEM_COMPOUND_CID>
17395349

> <PUBCHEM_CONFORMER_RMSD>
0.8

> <PUBCHEM_CONFORMER_DIVERSEORDER>
1
59
20
25
27
47
32
49
39
40
60
41
63
35
2
57
55
23
37
45
70
10
56
24
48
34
7
52
15
36
65
12
61
19
22
18
46
53
33
42
58
54
6
62
9
50
44
13
67
66
21
8
4
69
30
68
64
43
26
38
11
3
31
16
28
29
14
51
5
17

> <PUBCHEM_MMFF94_PARTIAL_CHARGES>
36
1 1.45
10 0.01
11 -0.14
12 -0.01
13 -0.15
14 -0.15
15 -0.3
16 0.26
17 0.08
18 -0.15
19 -0.15
2 -0.19
20 -0.15
21 -0.15
22 -0.15
23 0.19
24 -0.15
25 0.19
27 0.42
28 0.15
29 0.15
3 -0.19
30 0.15
34 0.15
35 0.15
36 0.15
37 0.15
38 0.15
39 0.15
4 -0.65
40 0.15
5 -0.65
6 -0.91
7 0.05
8 -0.57
9 0.68

> <PUBCHEM_EFFECTIVE_ROTOR_COUNT>
5

> <PUBCHEM_PHARMACOPHORE_FEATURES>
7
1 4 acceptor
1 5 acceptor
1 6 donor
3 7 8 10 cation
5 7 8 10 15 17 rings
6 11 13 14 20 21 22 rings
6 12 18 19 23 24 25 rings

> <PUBCHEM_HEAVY_ATOM_COUNT>
25

> <PUBCHEM_ATOM_DEF_STEREO_COUNT>
0

> <PUBCHEM_ATOM_UDEF_STEREO_COUNT>
1

> <PUBCHEM_BOND_DEF_STEREO_COUNT>
0

> <PUBCHEM_BOND_UDEF_STEREO_COUNT>
0

> <PUBCHEM_ISOTOPIC_ATOM_COUNT>
0

> <PUBCHEM_COMPONENT_COUNT>
1

> <PUBCHEM_CACTVS_TAUTO_COUNT>
1

> <PUBCHEM_CONFORMER_ID>
01096E9500000001

> <PUBCHEM_MMFF94_ENERGY>
36.6948

> <PUBCHEM_FEATURE_SELFOVERLAP>
35.538

> <PUBCHEM_SHAPE_FINGERPRINT>
10162869 55 18334285441882566011
10382601 240 18193537064461296523
104564 63 18340209695039814237
10759866 29 18131631197306117828
10906281 52 18200013149621349157
11680986 33 17760935438515068358
12422481 6 18124584547252980225
12553582 1 18339081484788557168
12633257 1 17967526870151283168
12788726 201 18335128804811582712
13132413 78 18051404081122963940
13140716 1 18124597479694543264
13965767 371 17101672587743912689
14790565 3 18409441475369970757
14840074 17 18340754984013867956
14955137 171 18119780578844878123
15420108 30 18040997405946491615
16752209 62 18339655511515232902
16945 1 17749660797091185099
17980427 23 16226037852432959713
20510252 161 18335708264719081360
20600515 1 18263632983789726572
21330990 113 17313371336379178332
23227448 37 5905464347446272768
23402539 116 18333736788450855678
23558518 356 17981323709570935413
23559900 14 17975134558839379676
2748010 2 17760639665481303759
34934 24 18268714913969775024
350125 39 18265047123605206982
352729 6 18050860102314538276
394222 165 16483835923785315727
6992083 37 18263639554846790607

> <PUBCHEM_SHAPE_MULTIPOLES>
477.11
7.69
3.4
1.52
5.12
0.25
0.23
0.16
1.28
-0.62
-0.56
-0.77
-0.11
-0.79

> <PUBCHEM_SHAPE_SELFOVERLAP>
1022.827

> <PUBCHEM_SHAPE_VOLUME>
267.8

> <PUBCHEM_COORDINATE_TYPE>
2
5
10

$$$$

