47205036
  -OEChem-06241222573D

 33 34  0     1  0  0  0  0  0999 V2000
    1.1919    1.3930   -2.6044 Cl  0  0  0  0  0  0  0  0  0  0  0  0
   -2.8439    3.2255    0.4568 Cl  0  0  0  0  0  0  0  0  0  0  0  0
    2.5328    0.8749    0.0401 O   0  0  0  0  0  0  0  0  0  0  0  0
    1.8248   -1.6972   -1.1598 O   0  0  0  0  0  0  0  0  0  0  0  0
    0.8653   -1.9132    0.9435 N   0  0  0  0  0  0  0  0  0  0  0  0
   -2.2853   -1.6150    0.9482 N   0  0  0  0  0  0  0  0  0  0  0  0
   -3.3522   -1.0745    0.3351 N   0  0  0  0  0  0  0  0  0  0  0  0
    2.7203   -0.3859    0.6610 C   0  0  1  0  0  0  0  0  0  0  0  0
   -0.1472   -2.8767    0.5789 C   0  0  0  0  0  0  0  0  0  0  0  0
    1.7753   -1.4001    0.0319 C   0  0  0  0  0  0  0  0  0  0  0  0
   -1.4050   -2.2144    0.0959 C   0  0  0  0  0  0  0  0  0  0  0  0
    4.1715   -0.7980    0.4718 C   0  0  0  0  0  0  0  0  0  0  0  0
    1.2771    1.4233    0.1139 C   0  0  0  0  0  0  0  0  0  0  0  0
   -1.9329   -2.0554   -1.1620 C   0  0  0  0  0  0  0  0  0  0  0  0
    0.5452    1.7136   -1.0376 C   0  0  0  0  0  0  0  0  0  0  0  0
    0.7344    1.6902    1.3710 C   0  0  0  0  0  0  0  0  0  0  0  0
   -3.1313   -1.3467   -0.9538 C   0  0  0  0  0  0  0  0  0  0  0  0
   -0.7293    2.2708   -0.9320 C   0  0  0  0  0  0  0  0  0  0  0  0
   -0.5398    2.2478    1.4766 C   0  0  0  0  0  0  0  0  0  0  0  0
   -1.2717    2.5380    0.3250 C   0  0  0  0  0  0  0  0  0  0  0  0
    2.5479   -0.3044    1.7404 H   0  0  0  0  0  0  0  0  0  0  0  0
   -0.3572   -3.4853    1.4650 H   0  0  0  0  0  0  0  0  0  0  0  0
    0.2495   -3.5386   -0.1991 H   0  0  0  0  0  0  0  0  0  0  0  0
    0.8810   -1.5909    1.9065 H   0  0  0  0  0  0  0  0  0  0  0  0
    4.8424   -0.0635    0.9300 H   0  0  0  0  0  0  0  0  0  0  0  0
    4.3661   -1.7797    0.9147 H   0  0  0  0  0  0  0  0  0  0  0  0
    4.4328   -0.8448   -0.5915 H   0  0  0  0  0  0  0  0  0  0  0  0
   -1.5113   -2.3997   -2.0950 H   0  0  0  0  0  0  0  0  0  0  0  0
   -2.2208   -1.5352    1.9554 H   0  0  0  0  0  0  0  0  0  0  0  0
    1.2940    1.4890    2.2800 H   0  0  0  0  0  0  0  0  0  0  0  0
   -3.8520   -1.0161   -1.6878 H   0  0  0  0  0  0  0  0  0  0  0  0
   -1.3016    2.4967   -1.8292 H   0  0  0  0  0  0  0  0  0  0  0  0
   -0.9486    2.4536    2.4625 H   0  0  0  0  0  0  0  0  0  0  0  0
  1 15  1  0  0  0  0
  2 20  1  0  0  0  0
  3  8  1  0  0  0  0
  3 13  1  0  0  0  0
  4 10  2  0  0  0  0
  5  9  1  0  0  0  0
  5 10  1  0  0  0  0
  5 24  1  0  0  0  0
  6  7  1  0  0  0  0
  6 11  1  0  0  0  0
  6 29  1  0  0  0  0
  7 17  2  0  0  0  0
  8 10  1  0  0  0  0
  8 12  1  0  0  0  0
  8 21  1  0  0  0  0
  9 11  1  0  0  0  0
  9 22  1  0  0  0  0
  9 23  1  0  0  0  0
 11 14  2  0  0  0  0
 12 25  1  0  0  0  0
 12 26  1  0  0  0  0
 12 27  1  0  0  0  0
 13 15  2  0  0  0  0
 13 16  1  0  0  0  0
 14 17  1  0  0  0  0
 14 28  1  0  0  0  0
 15 18  1  0  0  0  0
 16 19  2  0  0  0  0
 16 30  1  0  0  0  0
 17 31  1  0  0  0  0
 18 20  2  0  0  0  0
 18 32  1  0  0  0  0
 19 20  1  0  0  0  0
 19 33  1  0  0  0  0
M  END
> <PUBCHEM_COMPOUND_CID>
47205036

> <PUBCHEM_CONFORMER_RMSD>
1

> <PUBCHEM_CONFORMER_DIVERSEORDER>
1
64
3
151
123
6
45
129
154
54
83
70
68
112
159
15
34
82
96
127
113
72
11
52
35
104
94
17
69
86
117
46
101
163
132
81
148
31
122
91
50
80
147
124
84
142
160
133
71
29
76
141
14
97
136
37
18
121
130
153
144
109
78
27
90
19
120
118
28
25
23
48
7
98
39
66
20
139
43
51
108
126
53
85
60
41
140
111
63
21
92
49
87
89
5
115
102
99
8
67
47
79
95
134
100
128
9
110
155
73
137
24
61
138
114
93
125
135
75
150
77
152
58
157
38
10
116
42
103
143
22
88
40
146
44
12
65
162
62
161
107
145
131
32
119
26
16
158
156
55
4
30
33
105
2
74
57
13
59
106
36
149
56

> <PUBCHEM_MMFF94_PARTIAL_CHARGES>
26
1 -0.18
10 0.57
11 -0.33
13 0.08
14 -0.15
15 0.18
16 -0.15
17 0.14
18 -0.15
19 -0.15
2 -0.18
20 0.18
24 0.37
28 0.15
29 0.27
3 -0.36
30 0.15
31 0.15
32 0.15
33 0.15
4 -0.57
5 -0.73
6 0.3
7 -0.71
8 0.34
9 0.48

> <PUBCHEM_EFFECTIVE_ROTOR_COUNT>
6

> <PUBCHEM_PHARMACOPHORE_FEATURES>
7
1 3 acceptor
1 4 acceptor
1 5 donor
1 6 donor
1 7 acceptor
5 6 7 11 14 17 rings
6 13 15 16 18 19 20 rings

> <PUBCHEM_HEAVY_ATOM_COUNT>
20

> <PUBCHEM_ATOM_DEF_STEREO_COUNT>
0

> <PUBCHEM_ATOM_UDEF_STEREO_COUNT>
1

> <PUBCHEM_BOND_DEF_STEREO_COUNT>
0

> <PUBCHEM_BOND_UDEF_STEREO_COUNT>
0

> <PUBCHEM_ISOTOPIC_ATOM_COUNT>
0

> <PUBCHEM_COMPONENT_COUNT>
1

> <PUBCHEM_CACTVS_TAUTO_COUNT>
4

> <PUBCHEM_CONFORMER_ID>
02D04AAC00000001

> <PUBCHEM_MMFF94_ENERGY>
37.939

> <PUBCHEM_FEATURE_SELFOVERLAP>
35.522

> <PUBCHEM_SHAPE_FINGERPRINT>
10064457 181 17975129060933600985
104564 63 18410011043904080482
11370993 70 17905897228985404217
12035759 4 17843098348124991700
13132413 78 17184469820335809176
13134695 92 18120671127434199918
14251745 187 18337409204447839297
14787075 74 17825691089807385721
16945 1 18127137359949565448
17138139 8 17684696282020202101
17357779 13 18336561459582048430
20905425 154 18334573517015871103
21041028 32 18340197493280371659
21160774 45 18053108607629513356
21236236 1 18410014381943210026
23419403 2 17833316035853438968
238 59 16965485569683111887
2803657 2 18195224664264238640
3052486 1 18198892781373583382
3524813 1 17986417545242548023
4340502 62 17974581486931626257
5262128 65 16817110916468375967
6438718 38 18115317802955690807
81228 2 18341609369305546786

> <PUBCHEM_SHAPE_MULTIPOLES>
388.65
4.79
4.18
1.63
1.35
0.72
0.87
0.46
-0.61
-3.1
-0.24
0.17
-0.72
-0.74

> <PUBCHEM_SHAPE_SELFOVERLAP>
801.217

> <PUBCHEM_SHAPE_VOLUME>
225

> <PUBCHEM_COORDINATE_TYPE>
2
5
10

$$$$

