12961
  -OEChem-06261207352D

 10  9  0     0  0  0  0  0  0999 V2000
    2.5369   -0.0600    0.0000 S   0  0  0  0  0  0  0  0  0  0  0  0
    4.2690   -1.0600    0.0000 O   0  0  0  0  0  0  0  0  0  0  0  0
    5.1350    0.4400    0.0000 N   0  0  0  0  0  0  0  0  0  0  0  0
    3.4030    0.4400    0.0000 C   0  0  0  0  0  0  0  0  0  0  0  0
    4.2690   -0.0600    0.0000 C   0  0  0  0  0  0  0  0  0  0  0  0
    3.8015    0.9149    0.0000 H   0  0  0  0  0  0  0  0  0  0  0  0
    3.0044    0.9149    0.0000 H   0  0  0  0  0  0  0  0  0  0  0  0
    5.6720    0.1300    0.0000 H   0  0  0  0  0  0  0  0  0  0  0  0
    5.1350    1.0600    0.0000 H   0  0  0  0  0  0  0  0  0  0  0  0
    2.0000    0.2500    0.0000 H   0  0  0  0  0  0  0  0  0  0  0  0
  1  4  1  0  0  0  0
  1 10  1  0  0  0  0
  2  5  2  0  0  0  0
  3  5  1  0  0  0  0
  3  8  1  0  0  0  0
  3  9  1  0  0  0  0
  4  5  1  0  0  0  0
  4  6  1  0  0  0  0
  4  7  1  0  0  0  0
M  END
> <PUBCHEM_COMPOUND_CID>
12961

> <PUBCHEM_COMPOUND_CANONICALIZED>
1

> <PUBCHEM_CACTVS_COMPLEXITY>
44.9

> <PUBCHEM_CACTVS_HBOND_ACCEPTOR>
2

> <PUBCHEM_CACTVS_HBOND_DONOR>
2

> <PUBCHEM_CACTVS_ROTATABLE_BOND>
1

> <PUBCHEM_CACTVS_SUBSKEYS>
AAADcYBCIABAAAAAAAAAAAAAAAAAAAAAAAAAAAAAAAAAAAAAAAAAHgQQAAAAAACFwACAAABAAAQIAAEQEAAAAAAAAAAAAAAAAAAAAAAAAAAAAAAAEAAAAAAAAAAAAAAAAAAAAAAAAAAAAAAAAAAAAAAAAA==

> <PUBCHEM_IUPAC_OPENEYE_NAME>
2-sulfanylacetamide

> <PUBCHEM_IUPAC_CAS_NAME>
2-mercaptoacetamide

> <PUBCHEM_IUPAC_NAME>
2-sulfanylacetamide

> <PUBCHEM_IUPAC_SYSTEMATIC_NAME>
2-sulfanylethanamide

> <PUBCHEM_IUPAC_TRADITIONAL_NAME>
2-mercaptoacetamide

> <PUBCHEM_IUPAC_INCHI>
InChI=1S/C2H5NOS/c3-2(4)1-5/h5H,1H2,(H2,3,4)

> <PUBCHEM_IUPAC_INCHIKEY>
GYXHHICIFZSKKZ-UHFFFAOYSA-N

> <PUBCHEM_XLOGP3_AA>
-0.5

> <PUBCHEM_EXACT_MASS>
91.009185

> <PUBCHEM_MOLECULAR_FORMULA>
C2H5NOS

> <PUBCHEM_MOLECULAR_WEIGHT>
91.1322

> <PUBCHEM_OPENEYE_CAN_SMILES>
C(C(=O)N)S

> <PUBCHEM_OPENEYE_ISO_SMILES>
C(C(=O)N)S

> <PUBCHEM_CACTVS_TPSA>
44.1

> <PUBCHEM_MONOISOTOPIC_WEIGHT>
91.009185

> <PUBCHEM_TOTAL_CHARGE>
0

> <PUBCHEM_HEAVY_ATOM_COUNT>
5

> <PUBCHEM_ATOM_DEF_STEREO_COUNT>
0

> <PUBCHEM_ATOM_UDEF_STEREO_COUNT>
0

> <PUBCHEM_BOND_DEF_STEREO_COUNT>
0

> <PUBCHEM_BOND_UDEF_STEREO_COUNT>
0

> <PUBCHEM_ISOTOPIC_ATOM_COUNT>
0

> <PUBCHEM_COMPONENT_COUNT>
1

> <PUBCHEM_CACTVS_TAUTO_COUNT>
4

> <PUBCHEM_COORDINATE_TYPE>
1
5
255

$$$$

