854205
  -OEChem-06241222472D

 40 42  0     0  0  0  0  0  0999 V2000
    9.1279   -0.2498    0.0000 O   0  0  0  0  0  0  0  0  0  0  0  0
    3.7320    1.7502    0.0000 O   0  0  0  0  0  0  0  0  0  0  0  0
    2.0000   -1.2498    0.0000 O   0  0  0  0  0  0  0  0  0  0  0  0
    5.5443    0.5550    0.0000 N   0  0  0  0  0  0  0  0  0  0  0  0
    7.1279   -0.2498    0.0000 N   0  0  0  0  0  0  0  0  0  0  0  0
    5.5443   -1.0545    0.0000 N   0  0  0  0  0  0  0  0  0  0  0  0
    3.7320   -1.2498    0.0000 N   0  0  0  0  0  0  0  0  0  0  0  0
    2.8660    0.2502    0.0000 N   0  0  0  0  0  0  0  0  0  0  0  0
    6.1279   -0.2498    0.0000 C   0  0  0  0  0  0  0  0  0  0  0  0
    5.8550    1.5055    0.0000 C   0  0  0  0  0  0  0  0  0  0  0  0
    4.5981    0.2502    0.0000 C   0  0  0  0  0  0  0  0  0  0  0  0
    7.6279    0.6162    0.0000 C   0  0  0  0  0  0  0  0  0  0  0  0
    7.6279   -1.1158    0.0000 C   0  0  0  0  0  0  0  0  0  0  0  0
    4.5981   -0.7498    0.0000 C   0  0  0  0  0  0  0  0  0  0  0  0
    8.6279    0.6162    0.0000 C   0  0  0  0  0  0  0  0  0  0  0  0
    8.6279   -1.1158    0.0000 C   0  0  0  0  0  0  0  0  0  0  0  0
    5.1871    2.2498    0.0000 C   0  0  0  0  0  0  0  0  0  0  0  0
    6.8335    1.7117    0.0000 C   0  0  0  0  0  0  0  0  0  0  0  0
    3.7320    0.7502    0.0000 C   0  0  0  0  0  0  0  0  0  0  0  0
    2.8660   -0.7498    0.0000 C   0  0  0  0  0  0  0  0  0  0  0  0
    3.7320   -2.2498    0.0000 C   0  0  0  0  0  0  0  0  0  0  0  0
    6.2690    1.0440    0.0000 H   0  0  0  0  0  0  0  0  0  0  0  0
    7.7356    1.2268    0.0000 H   0  0  0  0  0  0  0  0  0  0  0  0
    7.0453    0.8283    0.0000 H   0  0  0  0  0  0  0  0  0  0  0  0
    7.0453   -1.3278    0.0000 H   0  0  0  0  0  0  0  0  0  0  0  0
    7.7356   -1.7264    0.0000 H   0  0  0  0  0  0  0  0  0  0  0  0
    9.2105    0.8283    0.0000 H   0  0  0  0  0  0  0  0  0  0  0  0
    8.5202    1.2268    0.0000 H   0  0  0  0  0  0  0  0  0  0  0  0
    8.5202   -1.7264    0.0000 H   0  0  0  0  0  0  0  0  0  0  0  0
    9.2105   -1.3278    0.0000 H   0  0  0  0  0  0  0  0  0  0  0  0
    5.6486    2.6638    0.0000 H   0  0  0  0  0  0  0  0  0  0  0  0
    4.7730    2.7112    0.0000 H   0  0  0  0  0  0  0  0  0  0  0  0
    4.7256    1.8357    0.0000 H   0  0  0  0  0  0  0  0  0  0  0  0
    6.9613    1.1050    0.0000 H   0  0  0  0  0  0  0  0  0  0  0  0
    7.4401    1.8396    0.0000 H   0  0  0  0  0  0  0  0  0  0  0  0
    6.7056    2.3184    0.0000 H   0  0  0  0  0  0  0  0  0  0  0  0
    2.3291    0.5602    0.0000 H   0  0  0  0  0  0  0  0  0  0  0  0
    3.1120   -2.2498    0.0000 H   0  0  0  0  0  0  0  0  0  0  0  0
    3.7320   -2.8698    0.0000 H   0  0  0  0  0  0  0  0  0  0  0  0
    4.3520   -2.2498    0.0000 H   0  0  0  0  0  0  0  0  0  0  0  0
  1 15  1  0  0  0  0
  1 16  1  0  0  0  0
  2 19  2  0  0  0  0
  3 20  2  0  0  0  0
  4  9  1  0  0  0  0
  4 10  1  0  0  0  0
  4 11  1  0  0  0  0
  5  9  1  0  0  0  0
  5 12  1  0  0  0  0
  5 13  1  0  0  0  0
  6  9  2  0  0  0  0
  6 14  1  0  0  0  0
  7 14  1  0  0  0  0
  7 20  1  0  0  0  0
  7 21  1  0  0  0  0
  8 19  1  0  0  0  0
  8 20  1  0  0  0  0
  8 37  1  0  0  0  0
 10 17  1  0  0  0  0
 10 18  1  0  0  0  0
 10 22  1  0  0  0  0
 11 14  2  0  0  0  0
 11 19  1  0  0  0  0
 12 15  1  0  0  0  0
 12 23  1  0  0  0  0
 12 24  1  0  0  0  0
 13 16  1  0  0  0  0
 13 25  1  0  0  0  0
 13 26  1  0  0  0  0
 15 27  1  0  0  0  0
 15 28  1  0  0  0  0
 16 29  1  0  0  0  0
 16 30  1  0  0  0  0
 17 31  1  0  0  0  0
 17 32  1  0  0  0  0
 17 33  1  0  0  0  0
 18 34  1  0  0  0  0
 18 35  1  0  0  0  0
 18 36  1  0  0  0  0
 21 38  1  0  0  0  0
 21 39  1  0  0  0  0
 21 40  1  0  0  0  0
M  END
> <PUBCHEM_COMPOUND_CID>
854205

> <PUBCHEM_COMPOUND_CANONICALIZED>
1

> <PUBCHEM_CACTVS_COMPLEXITY>
438

> <PUBCHEM_CACTVS_HBOND_ACCEPTOR>
5

> <PUBCHEM_CACTVS_HBOND_DONOR>
1

> <PUBCHEM_CACTVS_ROTATABLE_BOND>
2

> <PUBCHEM_CACTVS_SUBSKEYS>
AAADceBzsAAAAAAAAAAAAAAAAAAAAWAAAAAsWAAAAAAAAFgBgAAAHgAQAAAACCjhlgYDsBfMFACoAQdwdACAgC0HEKABUAGoVECCSAhASCAXAIgIByLQAGAAAAAAAAAAAAAAAAAAAAAAAAAAAAAAAAAAAA==

> <PUBCHEM_IUPAC_OPENEYE_NAME>
7-isopropyl-3-methyl-8-morpholino-purine-2,6-dione

> <PUBCHEM_IUPAC_CAS_NAME>
3-methyl-8-(4-morpholinyl)-7-propan-2-ylpurine-2,6-dione

> <PUBCHEM_IUPAC_NAME>
3-methyl-8-morpholin-4-yl-7-propan-2-ylpurine-2,6-dione

> <PUBCHEM_IUPAC_SYSTEMATIC_NAME>
3-methyl-8-morpholin-4-yl-7-propan-2-yl-purine-2,6-dione

> <PUBCHEM_IUPAC_TRADITIONAL_NAME>
7-isopropyl-3-methyl-8-morpholino-xanthine

> <PUBCHEM_IUPAC_INCHI>
InChI=1S/C13H19N5O3/c1-8(2)18-9-10(16(3)13(20)15-11(9)19)14-12(18)17-4-6-21-7-5-17/h8H,4-7H2,1-3H3,(H,15,19,20)

> <PUBCHEM_IUPAC_INCHIKEY>
NKMRPUQMBOEXBC-UHFFFAOYSA-N

> <PUBCHEM_XLOGP3_AA>
0.2

> <PUBCHEM_EXACT_MASS>
293.148789

> <PUBCHEM_MOLECULAR_FORMULA>
C13H19N5O3

> <PUBCHEM_MOLECULAR_WEIGHT>
293.32166

> <PUBCHEM_OPENEYE_CAN_SMILES>
CC(C)N1C2=C(N=C1N3CCOCC3)N(C(=O)NC2=O)C

> <PUBCHEM_OPENEYE_ISO_SMILES>
CC(C)N1C2=C(N=C1N3CCOCC3)N(C(=O)NC2=O)C

> <PUBCHEM_CACTVS_TPSA>
79.7

> <PUBCHEM_MONOISOTOPIC_WEIGHT>
293.148789

> <PUBCHEM_TOTAL_CHARGE>
0

> <PUBCHEM_HEAVY_ATOM_COUNT>
21

> <PUBCHEM_ATOM_DEF_STEREO_COUNT>
0

> <PUBCHEM_ATOM_UDEF_STEREO_COUNT>
0

> <PUBCHEM_BOND_DEF_STEREO_COUNT>
0

> <PUBCHEM_BOND_UDEF_STEREO_COUNT>
0

> <PUBCHEM_ISOTOPIC_ATOM_COUNT>
0

> <PUBCHEM_COMPONENT_COUNT>
1

> <PUBCHEM_CACTVS_TAUTO_COUNT>
3

> <PUBCHEM_COORDINATE_TYPE>
1
5
255

> <PUBCHEM_BONDANNOTATIONS>
11  14  8
11  19  8
4  11  8
4  9  8
6  14  8
6  9  8
7  14  8
7  20  8
8  19  8
8  20  8

$$$$

