6713
  -OEChem-06261201283D

 28 30  0     0  0  0  0  0  0999 V2000
    3.0034    1.2285   -0.0674 S   0  0  0  0  0  0  0  0  0  0  0  0
    0.3724    2.0263   -0.0524 O   0  0  0  0  0  0  0  0  0  0  0  0
   -1.9884   -2.7654    0.0365 O   0  0  0  0  0  0  0  0  0  0  0  0
    2.7860    1.8882    1.4096 O   0  0  0  0  0  0  0  0  0  0  0  0
    4.4048    0.8618   -0.1732 O   0  0  0  0  0  0  0  0  0  0  0  0
    2.3786    2.0935   -1.0516 O   0  0  0  0  0  0  0  0  0  0  0  0
    0.6684   -0.3324   -0.0241 C   0  0  0  0  0  0  0  0  0  0  0  0
    0.0383   -1.5785   -0.0018 C   0  0  0  0  0  0  0  0  0  0  0  0
   -1.6037    0.8166   -0.0131 C   0  0  0  0  0  0  0  0  0  0  0  0
    2.0663   -0.2570   -0.0400 C   0  0  0  0  0  0  0  0  0  0  0  0
   -2.2336   -0.4294    0.0095 C   0  0  0  0  0  0  0  0  0  0  0  0
   -0.1296    0.9106   -0.0310 C   0  0  0  0  0  0  0  0  0  0  0  0
   -1.4357   -1.6725    0.0162 C   0  0  0  0  0  0  0  0  0  0  0  0
    0.8062   -2.7491    0.0040 C   0  0  0  0  0  0  0  0  0  0  0  0
    2.8278   -1.4261   -0.0340 C   0  0  0  0  0  0  0  0  0  0  0  0
    2.1990   -2.6695   -0.0123 C   0  0  0  0  0  0  0  0  0  0  0  0
   -2.3715    1.9872   -0.0192 C   0  0  0  0  0  0  0  0  0  0  0  0
   -3.6316   -0.5047    0.0261 C   0  0  0  0  0  0  0  0  0  0  0  0
   -3.7644    1.9077   -0.0023 C   0  0  0  0  0  0  0  0  0  0  0  0
   -4.3930    0.6643    0.0204 C   0  0  0  0  0  0  0  0  0  0  0  0
    0.3401   -3.7306    0.0214 H   0  0  0  0  0  0  0  0  0  0  0  0
    3.9132   -1.4238   -0.0414 H   0  0  0  0  0  0  0  0  0  0  0  0
    2.7933   -3.5787   -0.0066 H   0  0  0  0  0  0  0  0  0  0  0  0
   -1.9089    2.9703   -0.0369 H   0  0  0  0  0  0  0  0  0  0  0  0
   -4.1457   -1.4620    0.0438 H   0  0  0  0  0  0  0  0  0  0  0  0
   -4.3595    2.8163   -0.0070 H   0  0  0  0  0  0  0  0  0  0  0  0
   -5.4775    0.6050    0.0335 H   0  0  0  0  0  0  0  0  0  0  0  0
    3.1076    1.3454    2.1674 H   0  0  0  0  0  0  0  0  0  0  0  0
  1  4  1  0  0  0  0
  1  5  2  0  0  0  0
  1  6  2  0  0  0  0
  1 10  1  0  0  0  0
  2 12  2  0  0  0  0
  3 13  2  0  0  0  0
  4 28  1  0  0  0  0
  7  8  2  0  0  0  0
  7 10  1  0  0  0  0
  7 12  1  0  0  0  0
  8 13  1  0  0  0  0
  8 14  1  0  0  0  0
  9 11  1  0  0  0  0
  9 12  1  0  0  0  0
  9 17  2  0  0  0  0
 10 15  2  0  0  0  0
 11 13  1  0  0  0  0
 11 18  2  0  0  0  0
 14 16  2  0  0  0  0
 14 21  1  0  0  0  0
 15 16  1  0  0  0  0
 15 22  1  0  0  0  0
 16 23  1  0  0  0  0
 17 19  1  0  0  0  0
 17 24  1  0  0  0  0
 18 20  1  0  0  0  0
 18 25  1  0  0  0  0
 19 20  2  0  0  0  0
 19 26  1  0  0  0  0
 20 27  1  0  0  0  0
M  END
> <PUBCHEM_COMPOUND_CID>
6713

> <PUBCHEM_CONFORMER_RMSD>
0.6

> <PUBCHEM_CONFORMER_DIVERSEORDER>
1

> <PUBCHEM_MMFF94_PARTIAL_CHARGES>
28
1 1.49
10 -0.01
11 0.09
12 0.4
13 0.4
14 -0.15
15 -0.15
16 -0.15
17 -0.15
18 -0.15
19 -0.15
2 -0.57
20 -0.15
21 0.15
22 0.15
23 0.15
24 0.15
25 0.15
26 0.15
27 0.15
28 0.5
3 -0.57
4 -0.68
5 -0.65
6 -0.65
7 0.09
8 0.09
9 0.09

> <PUBCHEM_EFFECTIVE_ROTOR_COUNT>
1

> <PUBCHEM_PHARMACOPHORE_FEATURES>
9
1 2 acceptor
1 3 acceptor
1 4 acceptor
1 5 acceptor
1 6 acceptor
4 1 4 5 6 anion
6 7 8 10 14 15 16 rings
6 7 8 9 11 12 13 rings
6 9 11 17 18 19 20 rings

> <PUBCHEM_HEAVY_ATOM_COUNT>
20

> <PUBCHEM_ATOM_DEF_STEREO_COUNT>
0

> <PUBCHEM_ATOM_UDEF_STEREO_COUNT>
0

> <PUBCHEM_BOND_DEF_STEREO_COUNT>
0

> <PUBCHEM_BOND_UDEF_STEREO_COUNT>
0

> <PUBCHEM_ISOTOPIC_ATOM_COUNT>
0

> <PUBCHEM_COMPONENT_COUNT>
1

> <PUBCHEM_CACTVS_TAUTO_COUNT>
1

> <PUBCHEM_CONFORMER_ID>
00001A3900000001

> <PUBCHEM_MMFF94_ENERGY>
63.037

> <PUBCHEM_FEATURE_SELFOVERLAP>
45.838

> <PUBCHEM_SHAPE_FINGERPRINT>
10411042 1 16825588705676439371
10608611 8 18339644554800498685
10616163 171 18339638936793657311
10967382 1 18411136965222410575
10980938 120 18411698807100656321
1100329 8 17397822865935338264
11132069 177 18339929207815813544
11471102 20 18339082704105517231
11680986 33 18340197578763025018
12173636 292 18194965136581265652
12403259 226 18053104218109568455
13140716 1 18411425015958004306
13380535 76 18412826867455299971
138480 1 17906733953192044582
14178342 30 18267597822523840080
14223421 5 18341326777536975811
15196674 1 18339079393144609279
15442244 35 18122062267298942251
15536298 74 18335420217935745862
16752209 62 18122906430394324790
16945 1 18266740177658035935
18186145 218 18337950224519955669
19591789 44 17906727003971746515
20510252 161 17974283222922078112
20645477 70 18263648527434242959
20691752 17 17703506692229147843
20739085 24 17980451749885342641
20905425 154 18335135392889877758
21267235 1 18266168612285516679
21501502 16 18410016545789127495
21524375 3 18408039593717239022
221490 88 18268419295207270987
2334 1 18410855434363756215
23366157 5 18059570356004297834
23463225 33 18267866271028401911
23559900 14 18336830904555608374
238 59 17408844302078182701
2748010 2 18411130303696862798
3091708 16 9191000739501664555
335352 9 18122906692123761455
350125 39 18267017452399778969
474 4 18201998819827436949
5104073 3 18339639053327279529
7364860 26 18263645220188254798
84936 182 18187650244609062241
9709674 26 18410569613181329135
9981440 41 18197220248241634034

> <PUBCHEM_SHAPE_MULTIPOLES>
386.09
6.86
3.16
0.72
2.3
1.07
0.06
-2.63
0.04
-1.16
0.01
-0.29
-0.25
0.08

> <PUBCHEM_SHAPE_SELFOVERLAP>
860.953

> <PUBCHEM_SHAPE_VOLUME>
204.8

> <PUBCHEM_COORDINATE_TYPE>
2
5
10

$$$$

