13443
  -OEChem-06261214172D

 27 28  0     1  0  0  0  0  0999 V2000
    5.5202    0.1481    0.0000 O   0  0  0  0  0  0  0  0  0  0  0  0
    4.4411    3.1307    0.0000 O   0  0  0  0  0  0  0  0  0  0  0  0
    2.9511    0.4571    0.0000 N   0  0  3  0  0  0  0  0  0  0  0  0
    3.7601   -0.1307    0.0000 N   0  0  0  0  0  0  0  0  0  0  0  0
    4.8479    2.2172    0.0000 N   0  0  0  0  0  0  0  0  0  0  0  0
    3.2601    1.4081    0.0000 C   0  0  0  0  0  0  0  0  0  0  0  0
    4.5691    0.4571    0.0000 C   0  0  0  0  0  0  0  0  0  0  0  0
    4.2601    1.4081    0.0000 C   0  0  0  0  0  0  0  0  0  0  0  0
    3.7601   -1.1307    0.0000 C   0  0  0  0  0  0  0  0  0  0  0  0
    2.0000    0.1481    0.0000 C   0  0  0  0  0  0  0  0  0  0  0  0
    2.6723    2.2172    0.0000 C   0  0  0  0  0  0  0  0  0  0  0  0
    2.8940   -1.6307    0.0000 C   0  0  0  0  0  0  0  0  0  0  0  0
    4.6261   -1.6307    0.0000 C   0  0  0  0  0  0  0  0  0  0  0  0
    2.8940   -2.6307    0.0000 C   0  0  0  0  0  0  0  0  0  0  0  0
    4.6261   -2.6307    0.0000 C   0  0  0  0  0  0  0  0  0  0  0  0
    3.7601   -3.1307    0.0000 C   0  0  0  0  0  0  0  0  0  0  0  0
    1.8084    0.7377    0.0000 H   0  0  0  0  0  0  0  0  0  0  0  0
    1.4103   -0.0435    0.0000 H   0  0  0  0  0  0  0  0  0  0  0  0
    2.1916   -0.4416    0.0000 H   0  0  0  0  0  0  0  0  0  0  0  0
    3.1739    2.5816    0.0000 H   0  0  0  0  0  0  0  0  0  0  0  0
    2.3079    2.7188    0.0000 H   0  0  0  0  0  0  0  0  0  0  0  0
    2.1707    1.8527    0.0000 H   0  0  0  0  0  0  0  0  0  0  0  0
    2.3571   -1.3207    0.0000 H   0  0  0  0  0  0  0  0  0  0  0  0
    5.1630   -1.3207    0.0000 H   0  0  0  0  0  0  0  0  0  0  0  0
    2.3571   -2.9407    0.0000 H   0  0  0  0  0  0  0  0  0  0  0  0
    5.1630   -2.9407    0.0000 H   0  0  0  0  0  0  0  0  0  0  0  0
    3.7601   -3.7507    0.0000 H   0  0  0  0  0  0  0  0  0  0  0  0
  1  7  2  0  0  0  0
  2  5  2  0  0  0  0
  3  4  1  0  0  0  0
  3  6  1  0  0  0  0
  3 10  1  0  0  0  0
  4  7  1  0  0  0  0
  4  9  1  0  0  0  0
  5  8  1  0  0  0  0
  6  8  2  0  0  0  0
  6 11  1  0  0  0  0
  7  8  1  0  0  0  0
  9 12  2  0  0  0  0
  9 13  1  0  0  0  0
 10 17  1  0  0  0  0
 10 18  1  0  0  0  0
 10 19  1  0  0  0  0
 11 20  1  0  0  0  0
 11 21  1  0  0  0  0
 11 22  1  0  0  0  0
 12 14  1  0  0  0  0
 12 23  1  0  0  0  0
 13 15  2  0  0  0  0
 13 24  1  0  0  0  0
 14 16  2  0  0  0  0
 14 25  1  0  0  0  0
 15 16  1  0  0  0  0
 15 26  1  0  0  0  0
 16 27  1  0  0  0  0
M  END
> <PUBCHEM_COMPOUND_CID>
13443

> <PUBCHEM_COMPOUND_CANONICALIZED>
1

> <PUBCHEM_CACTVS_COMPLEXITY>
345

> <PUBCHEM_CACTVS_HBOND_ACCEPTOR>
4

> <PUBCHEM_CACTVS_HBOND_DONOR>
0

> <PUBCHEM_CACTVS_ROTATABLE_BOND>
1

> <PUBCHEM_CACTVS_SUBSKEYS>
AAADccBzMAAAAAAAAAAAAAAAAAAAAQAAAAAwAAAAAAAAAAABAAAAHgAMAAAACAiBkAQywIIQAACJACVSUgCCBAAhAgAaiACIZMgIYCLAkZGUIAhghADIyUcQAAAAAAAAAAAAAAAAAAAAAAAAAAAAAAAAAA==

> <PUBCHEM_IUPAC_OPENEYE_NAME>
1,5-dimethyl-4-nitroso-2-phenyl-pyrazol-3-one

> <PUBCHEM_IUPAC_CAS_NAME>
1,5-dimethyl-4-nitroso-2-phenyl-3-pyrazolone

> <PUBCHEM_IUPAC_NAME>
1,5-dimethyl-4-nitroso-2-phenylpyrazol-3-one

> <PUBCHEM_IUPAC_SYSTEMATIC_NAME>
1,5-dimethyl-4-nitroso-2-phenyl-pyrazol-3-one

> <PUBCHEM_IUPAC_TRADITIONAL_NAME>
1,5-dimethyl-4-nitroso-2-phenyl-3-pyrazolin-3-one

> <PUBCHEM_IUPAC_INCHI>
InChI=1S/C11H11N3O2/c1-8-10(12-16)11(15)14(13(8)2)9-6-4-3-5-7-9/h3-7H,1-2H3

> <PUBCHEM_IUPAC_INCHIKEY>
IEODZSWSXNQPQL-UHFFFAOYSA-N

> <PUBCHEM_XLOGP3>
0.2

> <PUBCHEM_EXACT_MASS>
217.085127

> <PUBCHEM_MOLECULAR_FORMULA>
C11H11N3O2

> <PUBCHEM_MOLECULAR_WEIGHT>
217.22394

> <PUBCHEM_OPENEYE_CAN_SMILES>
CC1=C(C(=O)N(N1C)C2=CC=CC=C2)N=O

> <PUBCHEM_OPENEYE_ISO_SMILES>
CC1=C(C(=O)N(N1C)C2=CC=CC=C2)N=O

> <PUBCHEM_CACTVS_TPSA>
53

> <PUBCHEM_MONOISOTOPIC_WEIGHT>
217.085127

> <PUBCHEM_TOTAL_CHARGE>
0

> <PUBCHEM_HEAVY_ATOM_COUNT>
16

> <PUBCHEM_ATOM_DEF_STEREO_COUNT>
0

> <PUBCHEM_ATOM_UDEF_STEREO_COUNT>
0

> <PUBCHEM_BOND_DEF_STEREO_COUNT>
0

> <PUBCHEM_BOND_UDEF_STEREO_COUNT>
0

> <PUBCHEM_ISOTOPIC_ATOM_COUNT>
0

> <PUBCHEM_COMPONENT_COUNT>
1

> <PUBCHEM_CACTVS_TAUTO_COUNT>
1

> <PUBCHEM_COORDINATE_TYPE>
1
5
255

> <PUBCHEM_BONDANNOTATIONS>
12  14  8
13  15  8
14  16  8
15  16  8
3  4  8
3  6  8
4  7  8
6  8  8
7  8  8
9  12  8
9  13  8

$$$$

