5529
  -OEChem-06261200443D

 46 48  0     1  0  0  0  0  0999 V2000
    3.6806   -0.0743   -0.8959 O   0  0  0  0  0  0  0  0  0  0  0  0
    4.5361    2.6895    0.6397 O   0  0  0  0  0  0  0  0  0  0  0  0
    3.3600   -0.3927    2.0680 O   0  0  0  0  0  0  0  0  0  0  0  0
    5.3017   -2.3573   -1.0579 O   0  0  0  0  0  0  0  0  0  0  0  0
   -8.3089    0.1725    0.5413 O   0  0  0  0  0  0  0  0  0  0  0  0
    1.6266    1.0858   -0.6574 N   0  0  0  0  0  0  0  0  0  0  0  0
   -0.4928    1.6714   -1.0252 N   0  0  0  0  0  0  0  0  0  0  0  0
    1.3012   -1.1949    0.1127 N   0  0  0  0  0  0  0  0  0  0  0  0
   -2.7828   -0.2665   -0.5300 N   0  0  0  0  0  0  0  0  0  0  0  0
   -1.0648   -1.7929    0.1376 N   0  0  0  0  0  0  0  0  0  0  0  0
    3.5957    1.6291    0.7940 C   0  0  1  0  0  0  0  0  0  0  0  0
    3.0846    1.1979   -0.5838 C   0  0  1  0  0  0  0  0  0  0  0  0
    4.2907    0.3935    1.3347 C   0  0  2  0  0  0  0  0  0  0  0  0
    4.7193   -0.3297    0.0637 C   0  0  1  0  0  0  0  0  0  0  0  0
    4.9179   -1.8282    0.2009 C   0  0  0  0  0  0  0  0  0  0  0  0
    0.8714   -0.0057   -0.3353 C   0  0  0  0  0  0  0  0  0  0  0  0
    0.7624    2.0671   -1.0654 C   0  0  0  0  0  0  0  0  0  0  0  0
   -0.4393    0.3776   -0.5708 C   0  0  0  0  0  0  0  0  0  0  0  0
   -1.4267   -0.5692   -0.3175 C   0  0  0  0  0  0  0  0  0  0  0  0
    0.2573   -2.0262    0.3217 C   0  0  0  0  0  0  0  0  0  0  0  0
   -3.8400   -1.2025   -0.2860 C   0  0  0  0  0  0  0  0  0  0  0  0
   -5.1519   -0.5485   -0.5922 C   0  0  0  0  0  0  0  0  0  0  0  0
   -5.9340    0.1591    0.2459 C   0  0  0  0  0  0  0  0  0  0  0  0
   -7.2497    0.7184   -0.2340 C   0  0  0  0  0  0  0  0  0  0  0  0
   -5.6145    0.4265    1.6913 C   0  0  0  0  0  0  0  0  0  0  0  0
    2.7978    1.9962    1.4476 H   0  0  0  0  0  0  0  0  0  0  0  0
    3.3801    1.9010   -1.3719 H   0  0  0  0  0  0  0  0  0  0  0  0
    5.1482    0.6092    1.9798 H   0  0  0  0  0  0  0  0  0  0  0  0
    5.6285    0.1271   -0.3476 H   0  0  0  0  0  0  0  0  0  0  0  0
    3.9984   -2.3407    0.4997 H   0  0  0  0  0  0  0  0  0  0  0  0
    5.7023   -2.0575    0.9281 H   0  0  0  0  0  0  0  0  0  0  0  0
    5.2466    2.3866    0.0494 H   0  0  0  0  0  0  0  0  0  0  0  0
    3.0821    0.1290    2.8400 H   0  0  0  0  0  0  0  0  0  0  0  0
    1.1031    3.0450   -1.3775 H   0  0  0  0  0  0  0  0  0  0  0  0
    4.5986   -2.1401   -1.6938 H   0  0  0  0  0  0  0  0  0  0  0  0
    0.5110   -3.0156    0.6868 H   0  0  0  0  0  0  0  0  0  0  0  0
   -2.9965    0.6640   -0.8737 H   0  0  0  0  0  0  0  0  0  0  0  0
   -3.8154   -1.5622    0.7486 H   0  0  0  0  0  0  0  0  0  0  0  0
   -3.7294   -2.0840   -0.9288 H   0  0  0  0  0  0  0  0  0  0  0  0
   -5.4909   -0.6818   -1.6190 H   0  0  0  0  0  0  0  0  0  0  0  0
   -7.4473    0.4971   -1.2880 H   0  0  0  0  0  0  0  0  0  0  0  0
   -7.2624    1.8067   -0.1157 H   0  0  0  0  0  0  0  0  0  0  0  0
   -5.7033    1.4974    1.9035 H   0  0  0  0  0  0  0  0  0  0  0  0
   -6.3070   -0.1144    2.3438 H   0  0  0  0  0  0  0  0  0  0  0  0
   -4.5980    0.1326    1.9656 H   0  0  0  0  0  0  0  0  0  0  0  0
   -8.3097   -0.7902    0.4024 H   0  0  0  0  0  0  0  0  0  0  0  0
  1 12  1  0  0  0  0
  1 14  1  0  0  0  0
  2 11  1  0  0  0  0
  2 32  1  0  0  0  0
  3 13  1  0  0  0  0
  3 33  1  0  0  0  0
  4 15  1  0  0  0  0
  4 35  1  0  0  0  0
  5 24  1  0  0  0  0
  5 46  1  0  0  0  0
  6 12  1  0  0  0  0
  6 16  1  0  0  0  0
  6 17  1  0  0  0  0
  7 17  2  0  0  0  0
  7 18  1  0  0  0  0
  8 16  2  0  0  0  0
  8 20  1  0  0  0  0
  9 19  1  0  0  0  0
  9 21  1  0  0  0  0
  9 37  1  0  0  0  0
 10 19  1  0  0  0  0
 10 20  2  0  0  0  0
 11 12  1  0  0  0  0
 11 13  1  0  0  0  0
 11 26  1  0  0  0  0
 12 27  1  0  0  0  0
 13 14  1  0  0  0  0
 13 28  1  0  0  0  0
 14 15  1  0  0  0  0
 14 29  1  0  0  0  0
 15 30  1  0  0  0  0
 15 31  1  0  0  0  0
 16 18  1  0  0  0  0
 17 34  1  0  0  0  0
 18 19  2  0  0  0  0
 20 36  1  0  0  0  0
 21 22  1  0  0  0  0
 21 38  1  0  0  0  0
 21 39  1  0  0  0  0
 22 23  2  0  0  0  0
 22 40  1  0  0  0  0
 23 24  1  0  0  0  0
 23 25  1  0  0  0  0
 24 41  1  0  0  0  0
 24 42  1  0  0  0  0
 25 43  1  0  0  0  0
 25 44  1  0  0  0  0
 25 45  1  0  0  0  0
M  END
> <PUBCHEM_COMPOUND_CID>
5529

> <PUBCHEM_CONFORMER_RMSD>
1

> <PUBCHEM_CONFORMER_DIVERSEORDER>
3
256
218
118
253
280
168
162
115
275
187
267
43
158
306
41
293
133
17
212
268
274
243
65
182
57
286
287
273
71
172
80
227
130
179
217
188
98
97
240
254
15
150
230
186
183
252
194
196
269
242
292
129
53
142
213
2
220
48
51
62
47
102
241
249
144
134
119
151
261
22
198
195
104
192
25
27
208
55
148
73
132
64
39
72
121
111
175
126
291
219
167
307
8
173
247
149
235
301
18
259
164
248
125
176
146
181
225
169
122
45
271
302
29
200
81
304
237
260
108
26
138
289
294
264
272
61
93
7
236
44
190
70
258
233
67
210
160
184
228
197
58
54
257
92
12
24
255
226
116
246
295
163
84
128
211
178
214
37
263
296
161
155
11
204
1
265
35
109
66
278
131
231
145
68
127
13
174
40
76
141
6
110
46
251
123
229
282
14
38
298
94
202
33
79
244
191
85
96
36
95
250
56
154
52
89
290
234
277
86
19
180
224
300
216
103
157
165
185
5
32
159
107
279
20
288
203
10
90
69
206
21
147
23
189
136
106
239
262
28
88
120
99
135
170
34
105
223
207
270
143
4
238
166
305
100
16
281
153
139
31
49
140
112
30
101
266
232
299
193
50
303
221
245
117
9
215
283
87
75
42
152
113
114
78
124
177
156
222
60
91
137
199
74
284
83
201
59
297
285
82
63
209
77
205
276
171

> <PUBCHEM_MMFF94_PARTIAL_CHARGES>
33
1 -0.56
10 -0.62
11 0.28
12 0.54
13 0.28
14 0.28
15 0.28
16 0.11
17 0.04
18 0.23
19 0.41
2 -0.68
20 0.47
21 0.51
22 -0.29
23 -0.28
24 0.42
25 0.14
3 -0.68
32 0.4
33 0.4
34 0.15
35 0.4
36 0.15
37 0.4
4 -0.68
40 0.15
46 0.4
5 -0.68
6 0.05
7 -0.57
8 -0.57
9 -0.87

> <PUBCHEM_EFFECTIVE_ROTOR_COUNT>
7

> <PUBCHEM_PHARMACOPHORE_FEATURES>
18
1 1 acceptor
1 2 acceptor
1 2 donor
1 25 hydrophobe
1 3 acceptor
1 3 donor
1 4 acceptor
1 4 donor
1 5 acceptor
1 5 donor
1 9 cation
1 9 donor
3 6 7 17 cation
3 6 8 16 cation
3 8 10 20 cation
5 1 11 12 13 14 rings
5 6 7 16 17 18 rings
6 8 10 16 18 19 20 rings

> <PUBCHEM_HEAVY_ATOM_COUNT>
25

> <PUBCHEM_ATOM_DEF_STEREO_COUNT>
0

> <PUBCHEM_ATOM_UDEF_STEREO_COUNT>
4

> <PUBCHEM_BOND_DEF_STEREO_COUNT>
0

> <PUBCHEM_BOND_UDEF_STEREO_COUNT>
1

> <PUBCHEM_ISOTOPIC_ATOM_COUNT>
0

> <PUBCHEM_COMPONENT_COUNT>
1

> <PUBCHEM_CACTVS_TAUTO_COUNT>
3

> <PUBCHEM_CONFORMER_ID>
0000159900000003

> <PUBCHEM_MMFF94_ENERGY>
52.7566

> <PUBCHEM_FEATURE_SELFOVERLAP>
91.949

> <PUBCHEM_SHAPE_FINGERPRINT>
10906281 52 17700692866360532260
11089746 13 17821451257697024201
11646440 116 18334850611627405185
11796584 16 15051724288108104409
12236239 1 18186804656581251015
12403259 415 18201730556238856996
12596602 18 18337391539822240779
13533116 47 18260267451811267882
14022347 108 17775568628774456608
14170010 4 18343300371244723087
14251758 9 18411129247461877723
14347424 109 18335425672829392944
15183329 4 15213016042691057699
15840311 113 18334012792251433473
173720 79 14129063642250197158
19141452 34 18335425629663617702
20281389 69 18409729561113155017
21130935 74 18408886205435058315
21150785 3 12175615187902122091
21267235 1 18130790105218041726
21279426 13 18269563882558841701
21421861 104 17845675672178992680
21521721 280 10087632719867299469
21774942 28 16878496981966825337
22182313 1 18059031569214715476
23559900 14 18337391531337898236
23845131 108 17474675426030130165
335352 9 18342454841880716703
34934 24 18126571120267570884
4072396 5 18343589538075402507
4325135 7 10879990254953436530
465052 167 17346598577548775666
5104073 3 18200035019409782427
7495541 125 14764350401138194989

> <PUBCHEM_SHAPE_MULTIPOLES>
460.24
16.83
2.14
1.22
29.91
0.08
-0.45
0.24
-3.68
-3.1
0.23
-0.41
0.18
0.35

> <PUBCHEM_SHAPE_SELFOVERLAP>
975.431

> <PUBCHEM_SHAPE_VOLUME>
252.9

> <PUBCHEM_COORDINATE_TYPE>
2
5
10

$$$$

