13470
  -OEChem-06261214323D

 40 41  0     0  0  0  0  0  0999 V2000
    3.9674   -1.8180    2.2023 Cl  0  0  0  0  0  0  0  0  0  0  0  0
   -2.6729   -2.5916    0.2171 N   0  0  0  0  0  0  0  0  0  0  0  0
   -2.2610   -0.6748   -1.2534 C   0  0  0  0  0  0  0  0  0  0  0  0
   -3.0146   -1.1954   -0.0303 C   0  0  0  0  0  0  0  0  0  0  0  0
    0.0532    0.1747   -0.5232 C   0  0  0  0  0  0  0  0  0  0  0  0
   -0.7703   -0.7605   -1.0466 C   0  0  0  0  0  0  0  0  0  0  0  0
    1.5006   -0.1528   -0.4357 C   0  0  0  0  0  0  0  0  0  0  0  0
   -0.4870    1.4759   -0.0692 C   0  0  0  0  0  0  0  0  0  0  0  0
   -3.0027   -3.4162   -0.9465 C   0  0  0  0  0  0  0  0  0  0  0  0
   -3.3675   -3.0891    1.4056 C   0  0  0  0  0  0  0  0  0  0  0  0
    1.9792   -0.7568    0.7081 C   0  0  0  0  0  0  0  0  0  0  0  0
    2.3178    0.1574   -1.5025 C   0  0  0  0  0  0  0  0  0  0  0  0
   -0.5620    2.5229   -0.9684 C   0  0  0  0  0  0  0  0  0  0  0  0
   -0.9019    1.6099    1.2424 C   0  0  0  0  0  0  0  0  0  0  0  0
    3.3372   -1.0647    0.7888 C   0  0  0  0  0  0  0  0  0  0  0  0
    3.6759   -0.1503   -1.4217 C   0  0  0  0  0  0  0  0  0  0  0  0
   -1.0708    3.7490   -0.5403 C   0  0  0  0  0  0  0  0  0  0  0  0
   -1.4108    2.8361    1.6705 C   0  0  0  0  0  0  0  0  0  0  0  0
    4.1856   -0.7614   -0.2761 C   0  0  0  0  0  0  0  0  0  0  0  0
   -1.4953    3.9056    0.7791 C   0  0  0  0  0  0  0  0  0  0  0  0
   -2.5601    0.3676   -1.4169 H   0  0  0  0  0  0  0  0  0  0  0  0
   -2.5399   -1.1797   -2.1841 H   0  0  0  0  0  0  0  0  0  0  0  0
   -2.7608   -0.5896    0.8471 H   0  0  0  0  0  0  0  0  0  0  0  0
   -4.0931   -1.0741   -0.1969 H   0  0  0  0  0  0  0  0  0  0  0  0
   -0.3331   -1.7057   -1.3707 H   0  0  0  0  0  0  0  0  0  0  0  0
   -2.3219   -3.2470   -1.7857 H   0  0  0  0  0  0  0  0  0  0  0  0
   -4.0352   -3.2694   -1.2843 H   0  0  0  0  0  0  0  0  0  0  0  0
   -2.8841   -4.4793   -0.7026 H   0  0  0  0  0  0  0  0  0  0  0  0
   -3.1002   -2.4926    2.2851 H   0  0  0  0  0  0  0  0  0  0  0  0
   -3.0670   -4.1197    1.6249 H   0  0  0  0  0  0  0  0  0  0  0  0
   -4.4571   -3.0636    1.2889 H   0  0  0  0  0  0  0  0  0  0  0  0
    1.3152   -0.9931    1.5361 H   0  0  0  0  0  0  0  0  0  0  0  0
    1.9320    0.6323   -2.4001 H   0  0  0  0  0  0  0  0  0  0  0  0
   -0.2359    2.4132   -1.9990 H   0  0  0  0  0  0  0  0  0  0  0  0
   -0.8394    0.7853    1.9473 H   0  0  0  0  0  0  0  0  0  0  0  0
    4.3364    0.0857   -2.2509 H   0  0  0  0  0  0  0  0  0  0  0  0
   -1.1370    4.5817   -1.2344 H   0  0  0  0  0  0  0  0  0  0  0  0
   -1.7409    2.9581    2.6980 H   0  0  0  0  0  0  0  0  0  0  0  0
    5.2460   -0.9953   -0.2272 H   0  0  0  0  0  0  0  0  0  0  0  0
   -1.8916    4.8603    1.1124 H   0  0  0  0  0  0  0  0  0  0  0  0
  1 15  1  0  0  0  0
  2  4  1  0  0  0  0
  2  9  1  0  0  0  0
  2 10  1  0  0  0  0
  3  4  1  0  0  0  0
  3  6  1  0  0  0  0
  3 21  1  0  0  0  0
  3 22  1  0  0  0  0
  4 23  1  0  0  0  0
  4 24  1  0  0  0  0
  5  6  2  0  0  0  0
  5  7  1  0  0  0  0
  5  8  1  0  0  0  0
  6 25  1  0  0  0  0
  7 11  2  0  0  0  0
  7 12  1  0  0  0  0
  8 13  2  0  0  0  0
  8 14  1  0  0  0  0
  9 26  1  0  0  0  0
  9 27  1  0  0  0  0
  9 28  1  0  0  0  0
 10 29  1  0  0  0  0
 10 30  1  0  0  0  0
 10 31  1  0  0  0  0
 11 15  1  0  0  0  0
 11 32  1  0  0  0  0
 12 16  2  0  0  0  0
 12 33  1  0  0  0  0
 13 17  1  0  0  0  0
 13 34  1  0  0  0  0
 14 18  2  0  0  0  0
 14 35  1  0  0  0  0
 15 19  2  0  0  0  0
 16 19  1  0  0  0  0
 16 36  1  0  0  0  0
 17 20  2  0  0  0  0
 17 37  1  0  0  0  0
 18 20  1  0  0  0  0
 18 38  1  0  0  0  0
 19 39  1  0  0  0  0
 20 40  1  0  0  0  0
M  END
> <PUBCHEM_COMPOUND_CID>
13470

> <PUBCHEM_CONFORMER_RMSD>
0.8

> <PUBCHEM_CONFORMER_DIVERSEORDER>
7
19
11
16
20
22
12
21
15
14
18
17
8
4
10
13
6
9
1
3
5
2

> <PUBCHEM_MMFF94_PARTIAL_CHARGES>
30
1 -0.18
10 0.27
11 -0.15
12 -0.15
13 -0.15
14 -0.15
15 0.18
16 -0.15
17 -0.15
18 -0.15
19 -0.15
2 -0.81
20 -0.15
25 0.15
3 0.14
32 0.15
33 0.15
34 0.15
35 0.15
36 0.15
37 0.15
38 0.15
39 0.15
4 0.27
40 0.15
5 -0.06
6 -0.29
7 0.03
8 0.03
9 0.27

> <PUBCHEM_EFFECTIVE_ROTOR_COUNT>
5

> <PUBCHEM_PHARMACOPHORE_FEATURES>
3
1 2 cation
6 7 11 12 15 16 19 rings
6 8 13 14 17 18 20 rings

> <PUBCHEM_HEAVY_ATOM_COUNT>
20

> <PUBCHEM_ATOM_DEF_STEREO_COUNT>
0

> <PUBCHEM_ATOM_UDEF_STEREO_COUNT>
0

> <PUBCHEM_BOND_DEF_STEREO_COUNT>
0

> <PUBCHEM_BOND_UDEF_STEREO_COUNT>
1

> <PUBCHEM_ISOTOPIC_ATOM_COUNT>
0

> <PUBCHEM_COMPONENT_COUNT>
1

> <PUBCHEM_CACTVS_TAUTO_COUNT>
1

> <PUBCHEM_CONFORMER_ID>
0000349E00000007

> <PUBCHEM_MMFF94_ENERGY>
62.8111

> <PUBCHEM_FEATURE_SELFOVERLAP>
15.223

> <PUBCHEM_SHAPE_FINGERPRINT>
11070050 100 17103661694125018617
11578080 2 17914363232232775332
121448 382 17901973042074081509
12160290 23 18189055467851000693
12549972 3 17771074787656174603
12553582 1 18337668599051143255
12707595 3 18195248810839941495
12788726 201 18412263977636721739
12839892 36 17836924865044475393
13004483 165 18412545418443520395
13140716 1 18335702711036067881
133893 2 17468785999332031767
136203 1 18335980973366672137
13681431 1 18046352924689006693
13955234 65 17473821728586547619
14178342 30 18196664105996544826
14251757 17 15267065787596477795
14787075 74 17837488553694828572
14955137 171 17394161032758545792
15163728 17 8933899861204726115
15295992 7 16372413812387284154
15309172 13 17760638570370729356
15375462 189 18200305494706689699
15842332 3 17988072418022428966
17868525 174 18267581300639474131
1813 80 18043233657266480535
19734167 9 17029607262664469587
20600515 1 18265639643960139797
21041028 32 18118666752433969637
21452121 199 18193001417414223149
21524375 3 17321836699460325373
21731228 192 17761775469503694104
22112679 90 18120060975763860749
22956985 138 17476950968501311466
23419403 2 17683852844457904197
23557571 272 18041283283201279500
23558518 356 17977109285918119255
238078 22 18270672074347261950
3071541 236 18119537784217216340
3084891 72 18265627644311956599
35225 105 18190450756638476851
5845 1 13789329263883612301
6049 1 17095527331377875436
7364860 26 17541093169592764855
7615 1 18130789027286596212
81228 2 18261392307904187013
9841814 1 18048880693395002667
9981440 41 16665190652066905882

> <PUBCHEM_SHAPE_MULTIPOLES>
408.48
6.57
4.8
1.77
6.71
1.62
0.5
-5.6
1.21
-7.26
1.18
0.78
-0.22
-1.28

> <PUBCHEM_SHAPE_SELFOVERLAP>
850.598

> <PUBCHEM_SHAPE_VOLUME>
234.3

> <PUBCHEM_COORDINATE_TYPE>
2
5
10

$$$$

