17395902
  -OEChem-06241222532D

 44 48  0     0  0  0  0  0  0999 V2000
    4.5274    0.4574    0.0000 S   0  0  0  0  0  0  0  0  0  0  0  0
    9.3148    0.7088    0.0000 S   0  0  0  0  0  0  0  0  0  0  0  0
    9.0292    2.4678    0.0000 N   0  0  0  0  0  0  0  0  0  0  0  0
    9.6139    3.2791    0.0000 N   0  0  0  0  0  0  0  0  0  0  0  0
   10.5700    1.9737    0.0000 N   0  0  0  0  0  0  0  0  0  0  0  0
   10.5661    2.9737    0.0000 N   0  0  0  0  0  0  0  0  0  0  0  0
    6.3518    0.1019    0.0000 N   0  0  0  0  0  0  0  0  0  0  0  0
    6.7328   -1.6574    0.0000 N   0  0  0  0  0  0  0  0  0  0  0  0
    5.3923   -2.8136    0.0000 N   0  0  0  0  0  0  0  0  0  0  0  0
    8.0292    2.4640    0.0000 C   0  0  0  0  0  0  0  0  0  0  0  0
    7.1613    2.9606    0.0000 C   0  0  0  0  0  0  0  0  0  0  0  0
    7.1651    1.9606    0.0000 C   0  0  0  0  0  0  0  0  0  0  0  0
    4.0274   -1.0814    0.0000 C   0  0  0  0  0  0  0  0  0  0  0  0
    3.3424   -1.8661    0.0000 C   0  0  0  0  0  0  0  0  0  0  0  0
    2.3219   -1.6574    0.0000 C   0  0  0  0  0  0  0  0  0  0  0  0
    2.0000   -0.6668    0.0000 C   0  0  0  0  0  0  0  0  0  0  0  0
    2.7029    0.1019    0.0000 C   0  0  0  0  0  0  0  0  0  0  0  0
    3.7183   -0.1303    0.0000 C   0  0  0  0  0  0  0  0  0  0  0  0
    9.6201    1.6611    0.0000 C   0  0  0  0  0  0  0  0  0  0  0  0
    5.0274   -1.0814    0.0000 C   0  0  0  0  0  0  0  0  0  0  0  0
    5.3364   -0.1303    0.0000 C   0  0  0  0  0  0  0  0  0  0  0  0
    5.7123   -1.8661    0.0000 C   0  0  0  0  0  0  0  0  0  0  0  0
    8.3374    0.4971    0.0000 C   0  0  0  0  0  0  0  0  0  0  0  0
    8.0321   -0.4551    0.0000 C   0  0  0  0  0  0  0  0  0  0  0  0
    7.0547   -0.6668    0.0000 C   0  0  0  0  0  0  0  0  0  0  0  0
    8.1874    3.0634    0.0000 H   0  0  0  0  0  0  0  0  0  0  0  0
    6.5550    1.8506    0.0000 H   0  0  0  0  0  0  0  0  0  0  0  0
    7.3711    3.5440    0.0000 H   0  0  0  0  0  0  0  0  0  0  0  0
    6.5503    3.0659    0.0000 H   0  0  0  0  0  0  0  0  0  0  0  0
    7.3794    1.3788    0.0000 H   0  0  0  0  0  0  0  0  0  0  0  0
    3.1160   -2.4434    0.0000 H   0  0  0  0  0  0  0  0  0  0  0  0
    3.8724   -2.1879    0.0000 H   0  0  0  0  0  0  0  0  0  0  0  0
    1.7081   -1.7453    0.0000 H   0  0  0  0  0  0  0  0  0  0  0  0
    2.3034   -2.2772    0.0000 H   0  0  0  0  0  0  0  0  0  0  0  0
    1.6208   -0.1763    0.0000 H   0  0  0  0  0  0  0  0  0  0  0  0
    1.4518   -0.9565    0.0000 H   0  0  0  0  0  0  0  0  0  0  0  0
    2.9426    0.6737    0.0000 H   0  0  0  0  0  0  0  0  0  0  0  0
    2.1806    0.4358    0.0000 H   0  0  0  0  0  0  0  0  0  0  0  0
    8.3134    1.1167    0.0000 H   0  0  0  0  0  0  0  0  0  0  0  0
    7.7231    0.5811    0.0000 H   0  0  0  0  0  0  0  0  0  0  0  0
    8.0561   -1.0746    0.0000 H   0  0  0  0  0  0  0  0  0  0  0  0
    8.6464   -0.5390    0.0000 H   0  0  0  0  0  0  0  0  0  0  0  0
    5.8018   -3.2791    0.0000 H   0  0  0  0  0  0  0  0  0  0  0  0
    4.7844   -2.9354    0.0000 H   0  0  0  0  0  0  0  0  0  0  0  0
  1 18  1  0  0  0  0
  1 21  1  0  0  0  0
  2 19  1  0  0  0  0
  2 23  1  0  0  0  0
  3  4  1  0  0  0  0
  3 10  1  0  0  0  0
  3 19  1  0  0  0  0
  4  6  2  0  0  0  0
  5  6  1  0  0  0  0
  5 19  2  0  0  0  0
  7 21  2  0  0  0  0
  7 25  1  0  0  0  0
  8 22  1  0  0  0  0
  8 25  2  0  0  0  0
  9 22  1  0  0  0  0
  9 43  1  0  0  0  0
  9 44  1  0  0  0  0
 10 11  1  0  0  0  0
 10 12  1  0  0  0  0
 10 26  1  0  0  0  0
 11 12  1  0  0  0  0
 11 28  1  0  0  0  0
 11 29  1  0  0  0  0
 12 27  1  0  0  0  0
 12 30  1  0  0  0  0
 13 14  1  0  0  0  0
 13 18  2  0  0  0  0
 13 20  1  0  0  0  0
 14 15  1  0  0  0  0
 14 31  1  0  0  0  0
 14 32  1  0  0  0  0
 15 16  1  0  0  0  0
 15 33  1  0  0  0  0
 15 34  1  0  0  0  0
 16 17  1  0  0  0  0
 16 35  1  0  0  0  0
 16 36  1  0  0  0  0
 17 18  1  0  0  0  0
 17 37  1  0  0  0  0
 17 38  1  0  0  0  0
 20 21  1  0  0  0  0
 20 22  2  0  0  0  0
 23 24  1  0  0  0  0
 23 39  1  0  0  0  0
 23 40  1  0  0  0  0
 24 25  1  0  0  0  0
 24 41  1  0  0  0  0
 24 42  1  0  0  0  0
M  END
> <PUBCHEM_COMPOUND_CID>
17395902

> <PUBCHEM_COMPOUND_CANONICALIZED>
1

> <PUBCHEM_CACTVS_COMPLEXITY>
479

> <PUBCHEM_CACTVS_HBOND_ACCEPTOR>
8

> <PUBCHEM_CACTVS_HBOND_DONOR>
1

> <PUBCHEM_CACTVS_ROTATABLE_BOND>
5

> <PUBCHEM_CACTVS_SUBSKEYS>
AAADceB7gABgAAAAAAAAAAAAGAAAAWJAAAA8QAAAAAAAAFgB/gAAHAQYAAAADCjFWwSBsdZIEAimAgJgZACD0KthiLgV2DA4RJiIKCLg2NGEBAxogALoyCcQgMAOgAAAAAAAAAAAAAAAAAgAAAAAAAAAAA==

> <PUBCHEM_IUPAC_OPENEYE_NAME>
2-[2-(1-cyclopropyltetrazol-5-yl)sulfanylethyl]-5,6,7,8-tetrahydrobenzothiopheno[2,3-d]pyrimidin-4-amine

> <PUBCHEM_IUPAC_CAS_NAME>
2-[2-[(1-cyclopropyl-5-tetrazolyl)thio]ethyl]-5,6,7,8-tetrahydro-[1]benzothiolo[2,3-d]pyrimidin-4-amine

> <PUBCHEM_IUPAC_NAME>
2-[2-(1-cyclopropyltetrazol-5-yl)sulfanylethyl]-5,6,7,8-tetrahydro-[1]benzothiolo[2,3-d]pyrimidin-4-amine

> <PUBCHEM_IUPAC_SYSTEMATIC_NAME>
2-[2-[(1-cyclopropyl-1,2,3,4-tetrazol-5-yl)sulfanyl]ethyl]-5,6,7,8-tetrahydro-[1]benzothiolo[2,3-d]pyrimidin-4-amine

> <PUBCHEM_IUPAC_TRADITIONAL_NAME>
[2-[2-[(1-cyclopropyltetrazol-5-yl)thio]ethyl]-5,6,7,8-tetrahydrobenzothiopheno[2,3-d]pyrimidin-4-yl]amine

> <PUBCHEM_IUPAC_INCHI>
InChI=1S/C16H19N7S2/c17-14-13-10-3-1-2-4-11(10)25-15(13)19-12(18-14)7-8-24-16-20-21-22-23(16)9-5-6-9/h9H,1-8H2,(H2,17,18,19)

> <PUBCHEM_IUPAC_INCHIKEY>
LAOBUBBLMOUZII-UHFFFAOYSA-N

> <PUBCHEM_XLOGP3_AA>
3.4

> <PUBCHEM_EXACT_MASS>
373.114336

> <PUBCHEM_MOLECULAR_FORMULA>
C16H19N7S2

> <PUBCHEM_MOLECULAR_WEIGHT>
373.49896

> <PUBCHEM_OPENEYE_CAN_SMILES>
C1CCC2=C(C1)C3=C(N=C(N=C3S2)CCSC4=NN=NN4C5CC5)N

> <PUBCHEM_OPENEYE_ISO_SMILES>
C1CCC2=C(C1)C3=C(N=C(N=C3S2)CCSC4=NN=NN4C5CC5)N

> <PUBCHEM_CACTVS_TPSA>
149

> <PUBCHEM_MONOISOTOPIC_WEIGHT>
373.114336

> <PUBCHEM_TOTAL_CHARGE>
0

> <PUBCHEM_HEAVY_ATOM_COUNT>
25

> <PUBCHEM_ATOM_DEF_STEREO_COUNT>
0

> <PUBCHEM_ATOM_UDEF_STEREO_COUNT>
0

> <PUBCHEM_BOND_DEF_STEREO_COUNT>
0

> <PUBCHEM_BOND_UDEF_STEREO_COUNT>
0

> <PUBCHEM_ISOTOPIC_ATOM_COUNT>
0

> <PUBCHEM_COMPONENT_COUNT>
1

> <PUBCHEM_CACTVS_TAUTO_COUNT>
9

> <PUBCHEM_COORDINATE_TYPE>
1
5
255

> <PUBCHEM_BONDANNOTATIONS>
1  18  8
1  21  8
13  18  8
13  20  8
20  21  8
20  22  8
3  19  8
3  4  8
4  6  8
5  19  8
5  6  8
7  21  8
7  25  8
8  22  8
8  25  8

$$$$

