853981
  -OEChem-06241222462D

 40 41  0     1  0  0  0  0  0999 V2000
    2.5369   -3.0000    0.0000 O   0  0  0  0  0  0  0  0  0  0  0  0
    4.2690   -1.0000    0.0000 O   0  0  0  0  0  0  0  0  0  0  0  0
    3.4030   -1.5000    0.0000 O   0  0  0  0  0  0  0  0  0  0  0  0
    6.0010    3.0000    0.0000 O   0  0  0  0  0  0  0  0  0  0  0  0
    6.0010   -1.0000    0.0000 N   0  0  0  0  0  0  0  0  0  0  0  0
    5.1350   -2.5000    0.0000 C   0  0  2  0  0  0  0  0  0  0  0  0
    4.2690   -3.0000    0.0000 C   0  0  1  0  0  0  0  0  0  0  0  0
    6.0010   -3.0000    0.0000 C   0  0  0  0  0  0  0  0  0  0  0  0
    4.2690   -4.0000    0.0000 C   0  0  0  0  0  0  0  0  0  0  0  0
    6.0010   -4.0000    0.0000 C   0  0  0  0  0  0  0  0  0  0  0  0
    5.1350   -4.5000    0.0000 C   0  0  0  0  0  0  0  0  0  0  0  0
    5.1350   -1.5000    0.0000 C   0  0  0  0  0  0  0  0  0  0  0  0
    3.4030   -2.5000    0.0000 C   0  0  0  0  0  0  0  0  0  0  0  0
    6.0010    0.0000    0.0000 C   0  0  0  0  0  0  0  0  0  0  0  0
    6.8671    0.5000    0.0000 C   0  0  0  0  0  0  0  0  0  0  0  0
    5.1350    0.5000    0.0000 C   0  0  0  0  0  0  0  0  0  0  0  0
    6.8671    1.5000    0.0000 C   0  0  0  0  0  0  0  0  0  0  0  0
    5.1350    1.5000    0.0000 C   0  0  0  0  0  0  0  0  0  0  0  0
    6.0010    2.0000    0.0000 C   0  0  0  0  0  0  0  0  0  0  0  0
    6.8671    3.5000    0.0000 C   0  0  0  0  0  0  0  0  0  0  0  0
    6.8671    4.5000    0.0000 C   0  0  0  0  0  0  0  0  0  0  0  0
    5.6720   -2.1900    0.0000 H   0  0  0  0  0  0  0  0  0  0  0  0
    4.2690   -2.3800    0.0000 H   0  0  0  0  0  0  0  0  0  0  0  0
    6.6116   -3.1077    0.0000 H   0  0  0  0  0  0  0  0  0  0  0  0
    6.2131   -2.4174    0.0000 H   0  0  0  0  0  0  0  0  0  0  0  0
    3.6584   -3.8923    0.0000 H   0  0  0  0  0  0  0  0  0  0  0  0
    4.0569   -4.5826    0.0000 H   0  0  0  0  0  0  0  0  0  0  0  0
    6.5380   -4.3100    0.0000 H   0  0  0  0  0  0  0  0  0  0  0  0
    5.1350   -5.1200    0.0000 H   0  0  0  0  0  0  0  0  0  0  0  0
    6.5380   -1.3100    0.0000 H   0  0  0  0  0  0  0  0  0  0  0  0
    2.0000   -2.6900    0.0000 H   0  0  0  0  0  0  0  0  0  0  0  0
    7.4040    0.1900    0.0000 H   0  0  0  0  0  0  0  0  0  0  0  0
    4.5981    0.1900    0.0000 H   0  0  0  0  0  0  0  0  0  0  0  0
    7.4040    1.8100    0.0000 H   0  0  0  0  0  0  0  0  0  0  0  0
    4.5981    1.8100    0.0000 H   0  0  0  0  0  0  0  0  0  0  0  0
    7.0791    2.9174    0.0000 H   0  0  0  0  0  0  0  0  0  0  0  0
    7.4776    3.6077    0.0000 H   0  0  0  0  0  0  0  0  0  0  0  0
    7.4871    4.5000    0.0000 H   0  0  0  0  0  0  0  0  0  0  0  0
    6.8671    5.1200    0.0000 H   0  0  0  0  0  0  0  0  0  0  0  0
    6.2471    4.5000    0.0000 H   0  0  0  0  0  0  0  0  0  0  0  0
  1 13  1  0  0  0  0
  1 31  1  0  0  0  0
  2 12  2  0  0  0  0
  3 13  2  0  0  0  0
  4 19  1  0  0  0  0
  4 20  1  0  0  0  0
  5 12  1  0  0  0  0
  5 14  1  0  0  0  0
  5 30  1  0  0  0  0
  6  7  1  0  0  0  0
  6  8  1  0  0  0  0
  6 12  1  1  0  0  0
  6 22  1  0  0  0  0
  7  9  1  0  0  0  0
  7 13  1  1  0  0  0
  7 23  1  0  0  0  0
  8 10  1  0  0  0  0
  8 24  1  0  0  0  0
  8 25  1  0  0  0  0
  9 11  1  0  0  0  0
  9 26  1  0  0  0  0
  9 27  1  0  0  0  0
 10 11  2  0  0  0  0
 10 28  1  0  0  0  0
 11 29  1  0  0  0  0
 14 15  2  0  0  0  0
 14 16  1  0  0  0  0
 15 17  1  0  0  0  0
 15 32  1  0  0  0  0
 16 18  2  0  0  0  0
 16 33  1  0  0  0  0
 17 19  2  0  0  0  0
 17 34  1  0  0  0  0
 18 19  1  0  0  0  0
 18 35  1  0  0  0  0
 20 21  1  0  0  0  0
 20 36  1  0  0  0  0
 20 37  1  0  0  0  0
 21 38  1  0  0  0  0
 21 39  1  0  0  0  0
 21 40  1  0  0  0  0
M  END
> <PUBCHEM_COMPOUND_CID>
853981

> <PUBCHEM_COMPOUND_CANONICALIZED>
1

> <PUBCHEM_CACTVS_COMPLEXITY>
399

> <PUBCHEM_CACTVS_HBOND_ACCEPTOR>
4

> <PUBCHEM_CACTVS_HBOND_DONOR>
2

> <PUBCHEM_CACTVS_ROTATABLE_BOND>
5

> <PUBCHEM_CACTVS_SUBSKEYS>
AAADceB6OAAAAAAAAAAAAAAAAAAAAAAAAAAwQAAAAAAAAAABAAAAHgAQCAAADQyhkAIyzoLABgCIACXSWACCCAAhIgAIiAEGbIgMJjLEsZuGeCjk1BHI6Ae/QAAOgEAAAAAAAAAAgAAAAAAAAAAAAAAAAA==

> <PUBCHEM_IUPAC_OPENEYE_NAME>
(1R,6S)-6-[(4-ethoxyphenyl)carbamoyl]cyclohex-3-ene-1-carboxylic acid

> <PUBCHEM_IUPAC_CAS_NAME>
(1R,6S)-6-[(4-ethoxyanilino)-oxomethyl]-1-cyclohex-3-enecarboxylic acid

> <PUBCHEM_IUPAC_NAME>
(1R,6S)-6-[(4-ethoxyphenyl)carbamoyl]cyclohex-3-ene-1-carboxylic acid

> <PUBCHEM_IUPAC_SYSTEMATIC_NAME>
(1R,6S)-6-[(4-ethoxyphenyl)carbamoyl]cyclohex-3-ene-1-carboxylic acid

> <PUBCHEM_IUPAC_TRADITIONAL_NAME>
(1R,6S)-6-(p-phenetylcarbamoyl)cyclohex-3-ene-1-carboxylic acid

> <PUBCHEM_IUPAC_INCHI>
InChI=1S/C16H19NO4/c1-2-21-12-9-7-11(8-10-12)17-15(18)13-5-3-4-6-14(13)16(19)20/h3-4,7-10,13-14H,2,5-6H2,1H3,(H,17,18)(H,19,20)/t13-,14+/m0/s1

> <PUBCHEM_IUPAC_INCHIKEY>
BVICRFJGNOHROJ-UONOGXRCSA-N

> <PUBCHEM_XLOGP3_AA>
2.1

> <PUBCHEM_EXACT_MASS>
289.131408

> <PUBCHEM_MOLECULAR_FORMULA>
C16H19NO4

> <PUBCHEM_MOLECULAR_WEIGHT>
289.32636

> <PUBCHEM_OPENEYE_CAN_SMILES>
CCOC1=CC=C(C=C1)NC(=O)C2CC=CCC2C(=O)O

> <PUBCHEM_OPENEYE_ISO_SMILES>
CCOC1=CC=C(C=C1)NC(=O)[C@H]2CC=CC[C@H]2C(=O)O

> <PUBCHEM_CACTVS_TPSA>
75.6

> <PUBCHEM_MONOISOTOPIC_WEIGHT>
289.131408

> <PUBCHEM_TOTAL_CHARGE>
0

> <PUBCHEM_HEAVY_ATOM_COUNT>
21

> <PUBCHEM_ATOM_DEF_STEREO_COUNT>
2

> <PUBCHEM_ATOM_UDEF_STEREO_COUNT>
0

> <PUBCHEM_BOND_DEF_STEREO_COUNT>
0

> <PUBCHEM_BOND_UDEF_STEREO_COUNT>
0

> <PUBCHEM_ISOTOPIC_ATOM_COUNT>
0

> <PUBCHEM_COMPONENT_COUNT>
1

> <PUBCHEM_CACTVS_TAUTO_COUNT>
3

> <PUBCHEM_COORDINATE_TYPE>
1
5
255

> <PUBCHEM_BONDANNOTATIONS>
14  15  8
14  16  8
15  17  8
16  18  8
17  19  8
18  19  8
6  12  5
7  13  5

$$$$

