14416
  -OEChem-06241222432D

 50 51  0     0  0  0  0  0  0999 V2000
    4.8100   -0.8660    0.0000 O   0  0  0  0  0  0  0  0  0  0  0  0
    2.3100    0.0000    0.0000 O   0  0  0  0  0  0  0  0  0  0  0  0
    4.8100    0.8660    0.0000 O   0  0  0  0  0  0  0  0  0  0  0  0
    7.3100   -1.7320    0.0000 N   0  3  0  0  0  0  0  0  0  0  0  0
    6.3100   -1.7320    0.0000 C   0  0  0  0  0  0  0  0  0  0  0  0
    8.3100   -1.7320    0.0000 C   0  0  0  0  0  0  0  0  0  0  0  0
    7.3100   -2.7320    0.0000 C   0  0  0  0  0  0  0  0  0  0  0  0
    7.3100   -0.7321    0.0000 C   0  0  0  0  0  0  0  0  0  0  0  0
    5.8100   -0.8660    0.0000 C   0  0  0  0  0  0  0  0  0  0  0  0
    8.8100   -2.5981    0.0000 C   0  0  0  0  0  0  0  0  0  0  0  0
    3.3100    0.0000    0.0000 C   0  0  0  0  0  0  0  0  0  0  0  0
    4.3100    0.0000    0.0000 C   0  0  0  0  0  0  0  0  0  0  0  0
    3.3100   -1.0000    0.0000 C   0  0  0  0  0  0  0  0  0  0  0  0
    3.3100    1.0000    0.0000 C   0  0  0  0  0  0  0  0  0  0  0  0
    2.4440   -1.5000    0.0000 C   0  0  0  0  0  0  0  0  0  0  0  0
    4.1760    1.5000    0.0000 C   0  0  0  0  0  0  0  0  0  0  0  0
    4.1760   -1.5000    0.0000 C   0  0  0  0  0  0  0  0  0  0  0  0
    2.4440    1.5000    0.0000 C   0  0  0  0  0  0  0  0  0  0  0  0
    2.4440   -2.5000    0.0000 C   0  0  0  0  0  0  0  0  0  0  0  0
    4.1760    2.5000    0.0000 C   0  0  0  0  0  0  0  0  0  0  0  0
    4.1760   -2.5000    0.0000 C   0  0  0  0  0  0  0  0  0  0  0  0
    2.4440    2.5000    0.0000 C   0  0  0  0  0  0  0  0  0  0  0  0
    3.3100   -3.0000    0.0000 C   0  0  0  0  0  0  0  0  0  0  0  0
    3.3100    3.0000    0.0000 C   0  0  0  0  0  0  0  0  0  0  0  0
    5.7274   -1.9441    0.0000 H   0  0  0  0  0  0  0  0  0  0  0  0
    6.4177   -2.3426    0.0000 H   0  0  0  0  0  0  0  0  0  0  0  0
    8.8926   -1.5200    0.0000 H   0  0  0  0  0  0  0  0  0  0  0  0
    8.2023   -1.1215    0.0000 H   0  0  0  0  0  0  0  0  0  0  0  0
    6.6900   -2.7320    0.0000 H   0  0  0  0  0  0  0  0  0  0  0  0
    7.3100   -3.3520    0.0000 H   0  0  0  0  0  0  0  0  0  0  0  0
    7.9300   -2.7320    0.0000 H   0  0  0  0  0  0  0  0  0  0  0  0
    7.9300   -0.7321    0.0000 H   0  0  0  0  0  0  0  0  0  0  0  0
    7.3100   -0.1121    0.0000 H   0  0  0  0  0  0  0  0  0  0  0  0
    6.6900   -0.7321    0.0000 H   0  0  0  0  0  0  0  0  0  0  0  0
    6.3926   -0.6540    0.0000 H   0  0  0  0  0  0  0  0  0  0  0  0
    5.7023   -0.2554    0.0000 H   0  0  0  0  0  0  0  0  0  0  0  0
    8.2731   -2.9081    0.0000 H   0  0  0  0  0  0  0  0  0  0  0  0
    9.1200   -3.1350    0.0000 H   0  0  0  0  0  0  0  0  0  0  0  0
    9.3469   -2.2881    0.0000 H   0  0  0  0  0  0  0  0  0  0  0  0
    4.7130    1.1900    0.0000 H   0  0  0  0  0  0  0  0  0  0  0  0
    1.9070   -1.1900    0.0000 H   0  0  0  0  0  0  0  0  0  0  0  0
    1.9070    1.1900    0.0000 H   0  0  0  0  0  0  0  0  0  0  0  0
    4.7130   -1.1900    0.0000 H   0  0  0  0  0  0  0  0  0  0  0  0
    2.0000    0.5369    0.0000 H   0  0  0  0  0  0  0  0  0  0  0  0
    1.9070   -2.8100    0.0000 H   0  0  0  0  0  0  0  0  0  0  0  0
    4.7130    2.8100    0.0000 H   0  0  0  0  0  0  0  0  0  0  0  0
    4.7130   -2.8100    0.0000 H   0  0  0  0  0  0  0  0  0  0  0  0
    1.9070    2.8100    0.0000 H   0  0  0  0  0  0  0  0  0  0  0  0
    3.3100   -3.6200    0.0000 H   0  0  0  0  0  0  0  0  0  0  0  0
    3.3100    3.6200    0.0000 H   0  0  0  0  0  0  0  0  0  0  0  0
  1  9  1  0  0  0  0
  1 12  1  0  0  0  0
  2 11  1  0  0  0  0
  2 44  1  0  0  0  0
  3 12  2  0  0  0  0
  4  5  1  0  0  0  0
  4  6  1  0  0  0  0
  4  7  1  0  0  0  0
  4  8  1  0  0  0  0
  5  9  1  0  0  0  0
  5 25  1  0  0  0  0
  5 26  1  0  0  0  0
  6 10  1  0  0  0  0
  6 27  1  0  0  0  0
  6 28  1  0  0  0  0
  7 29  1  0  0  0  0
  7 30  1  0  0  0  0
  7 31  1  0  0  0  0
  8 32  1  0  0  0  0
  8 33  1  0  0  0  0
  8 34  1  0  0  0  0
  9 35  1  0  0  0  0
  9 36  1  0  0  0  0
 10 37  1  0  0  0  0
 10 38  1  0  0  0  0
 10 39  1  0  0  0  0
 11 12  1  0  0  0  0
 11 13  1  0  0  0  0
 11 14  1  0  0  0  0
 13 15  2  0  0  0  0
 13 17  1  0  0  0  0
 14 16  2  0  0  0  0
 14 18  1  0  0  0  0
 15 19  1  0  0  0  0
 15 41  1  0  0  0  0
 16 20  1  0  0  0  0
 16 40  1  0  0  0  0
 17 21  2  0  0  0  0
 17 43  1  0  0  0  0
 18 22  2  0  0  0  0
 18 42  1  0  0  0  0
 19 23  2  0  0  0  0
 19 45  1  0  0  0  0
 20 24  2  0  0  0  0
 20 46  1  0  0  0  0
 21 23  1  0  0  0  0
 21 47  1  0  0  0  0
 22 24  1  0  0  0  0
 22 48  1  0  0  0  0
 23 49  1  0  0  0  0
 24 50  1  0  0  0  0
M  CHG  1   4   1
M  END
> <PUBCHEM_COMPOUND_CID>
14416

> <PUBCHEM_COMPOUND_CANONICALIZED>
1

> <PUBCHEM_CACTVS_COMPLEXITY>
378

> <PUBCHEM_CACTVS_HBOND_ACCEPTOR>
3

> <PUBCHEM_CACTVS_HBOND_DONOR>
1

> <PUBCHEM_CACTVS_ROTATABLE_BOND>
8

> <PUBCHEM_CACTVS_SUBSKEYS>
AAADceB6MAAAAAAAAAAAAAAAAAAAAAAAAAAwYAAAAAAAAAABQAAAHgAACAAADEThmAYyCIMABgCIAiDSCAICAAAgAAAIiAFICIgLJjKAFRCDcAAkwAGbmAeIyOCOgAAAAAAAAAAAAAAAAAAAAAAAAAAAAA==

> <PUBCHEM_IUPAC_OPENEYE_NAME>
ethyl-[2-(2-hydroxy-2,2-diphenyl-acetyl)oxyethyl]-dimethyl-ammonium

> <PUBCHEM_IUPAC_CAS_NAME>
ethyl-[2-(2-hydroxy-1-oxo-2,2-diphenylethoxy)ethyl]-dimethylammonium

> <PUBCHEM_IUPAC_NAME>
ethyl-[2-(2-hydroxy-2,2-diphenylacetyl)oxyethyl]-dimethylazanium

> <PUBCHEM_IUPAC_SYSTEMATIC_NAME>
ethyl-dimethyl-[2-(2-oxidanyl-2,2-diphenyl-ethanoyl)oxyethyl]azanium

> <PUBCHEM_IUPAC_TRADITIONAL_NAME>
2-benziloyloxyethyl-ethyl-dimethyl-ammonium

> <PUBCHEM_IUPAC_INCHI>
InChI=1S/C20H26NO3/c1-4-21(2,3)15-16-24-19(22)20(23,17-11-7-5-8-12-17)18-13-9-6-10-14-18/h5-14,23H,4,15-16H2,1-3H3/q+1

> <PUBCHEM_IUPAC_INCHIKEY>
XRJIGJFEKPXBTD-UHFFFAOYSA-N

> <PUBCHEM_XLOGP3_AA>
3.1

> <PUBCHEM_EXACT_MASS>
328.191269

> <PUBCHEM_MOLECULAR_FORMULA>
C20H26NO3+

> <PUBCHEM_MOLECULAR_WEIGHT>
328.42534

> <PUBCHEM_OPENEYE_CAN_SMILES>
CC[N+](C)(C)CCOC(=O)C(C1=CC=CC=C1)(C2=CC=CC=C2)O

> <PUBCHEM_OPENEYE_ISO_SMILES>
CC[N+](C)(C)CCOC(=O)C(C1=CC=CC=C1)(C2=CC=CC=C2)O

> <PUBCHEM_CACTVS_TPSA>
46.5

> <PUBCHEM_MONOISOTOPIC_WEIGHT>
328.191269

> <PUBCHEM_TOTAL_CHARGE>
1

> <PUBCHEM_HEAVY_ATOM_COUNT>
24

> <PUBCHEM_ATOM_DEF_STEREO_COUNT>
0

> <PUBCHEM_ATOM_UDEF_STEREO_COUNT>
0

> <PUBCHEM_BOND_DEF_STEREO_COUNT>
0

> <PUBCHEM_BOND_UDEF_STEREO_COUNT>
0

> <PUBCHEM_ISOTOPIC_ATOM_COUNT>
0

> <PUBCHEM_COMPONENT_COUNT>
1

> <PUBCHEM_CACTVS_TAUTO_COUNT>
1

> <PUBCHEM_COORDINATE_TYPE>
1
5
255

> <PUBCHEM_BONDANNOTATIONS>
13  15  8
13  17  8
14  16  8
14  18  8
15  19  8
16  20  8
17  21  8
18  22  8
19  23  8
20  24  8
21  23  8
22  24  8

$$$$

