9422
  -OEChem-06261203413D

 33 36  0     0  0  0  0  0  0999 V2000
    0.3222    0.2804    0.0001 C   0  0  0  0  0  0  0  0  0  0  0  0
   -0.0621   -1.0830    0.0002 C   0  0  0  0  0  0  0  0  0  0  0  0
    1.7236    0.6154    0.0000 C   0  0  0  0  0  0  0  0  0  0  0  0
    0.9143   -2.0828    0.0002 C   0  0  0  0  0  0  0  0  0  0  0  0
    2.6856   -0.4283    0.0002 C   0  0  0  0  0  0  0  0  0  0  0  0
   -0.7257    1.2366    0.0001 C   0  0  0  0  0  0  0  0  0  0  0  0
   -2.0876    0.8795    0.0000 C   0  0  0  0  0  0  0  0  0  0  0  0
   -2.4391   -0.4824   -0.0002 C   0  0  0  0  0  0  0  0  0  0  0  0
   -1.4206   -1.4448    0.0000 C   0  0  0  0  0  0  0  0  0  0  0  0
    2.2673   -1.7608    0.0002 C   0  0  0  0  0  0  0  0  0  0  0  0
    2.2260    1.9412   -0.0004 C   0  0  0  0  0  0  0  0  0  0  0  0
    0.5722   -3.5425   -0.0004 C   0  0  0  0  0  0  0  0  0  0  0  0
    4.0602   -0.1356    0.0001 C   0  0  0  0  0  0  0  0  0  0  0  0
   -3.1048    1.8497    0.0000 C   0  0  0  0  0  0  0  0  0  0  0  0
   -3.7967   -0.8457   -0.0002 C   0  0  0  0  0  0  0  0  0  0  0  0
    3.5957    2.2188   -0.0002 C   0  0  0  0  0  0  0  0  0  0  0  0
    4.5132    1.1798   -0.0001 C   0  0  0  0  0  0  0  0  0  0  0  0
   -4.4488    1.4758    0.0002 C   0  0  0  0  0  0  0  0  0  0  0  0
   -4.7948    0.1286    0.0000 C   0  0  0  0  0  0  0  0  0  0  0  0
   -0.4892    2.2993    0.0002 H   0  0  0  0  0  0  0  0  0  0  0  0
   -1.7220   -2.4910    0.0000 H   0  0  0  0  0  0  0  0  0  0  0  0
    3.0119   -2.5557    0.0001 H   0  0  0  0  0  0  0  0  0  0  0  0
    1.5554    2.7965   -0.0006 H   0  0  0  0  0  0  0  0  0  0  0  0
    0.0000   -3.8055    0.8956 H   0  0  0  0  0  0  0  0  0  0  0  0
    0.0005   -3.8049   -0.8970 H   0  0  0  0  0  0  0  0  0  0  0  0
    1.4664   -4.1761   -0.0003 H   0  0  0  0  0  0  0  0  0  0  0  0
    4.7969   -0.9370    0.0002 H   0  0  0  0  0  0  0  0  0  0  0  0
   -2.8570    2.9092    0.0002 H   0  0  0  0  0  0  0  0  0  0  0  0
   -4.0888   -1.8939   -0.0003 H   0  0  0  0  0  0  0  0  0  0  0  0
    3.9395    3.2491   -0.0003 H   0  0  0  0  0  0  0  0  0  0  0  0
    5.5783    1.3903    0.0000 H   0  0  0  0  0  0  0  0  0  0  0  0
   -5.2239    2.2365    0.0003 H   0  0  0  0  0  0  0  0  0  0  0  0
   -5.8404   -0.1648    0.0000 H   0  0  0  0  0  0  0  0  0  0  0  0
  1  2  1  0  0  0  0
  1  3  1  0  0  0  0
  1  6  2  0  0  0  0
  2  4  1  0  0  0  0
  2  9  2  0  0  0  0
  3  5  1  0  0  0  0
  3 11  2  0  0  0  0
  4 10  2  0  0  0  0
  4 12  1  0  0  0  0
  5 10  1  0  0  0  0
  5 13  2  0  0  0  0
  6  7  1  0  0  0  0
  6 20  1  0  0  0  0
  7  8  1  0  0  0  0
  7 14  2  0  0  0  0
  8  9  1  0  0  0  0
  8 15  2  0  0  0  0
  9 21  1  0  0  0  0
 10 22  1  0  0  0  0
 11 16  1  0  0  0  0
 11 23  1  0  0  0  0
 12 24  1  0  0  0  0
 12 25  1  0  0  0  0
 12 26  1  0  0  0  0
 13 17  1  0  0  0  0
 13 27  1  0  0  0  0
 14 18  1  0  0  0  0
 14 28  1  0  0  0  0
 15 19  1  0  0  0  0
 15 29  1  0  0  0  0
 16 17  2  0  0  0  0
 16 30  1  0  0  0  0
 17 31  1  0  0  0  0
 18 19  2  0  0  0  0
 18 32  1  0  0  0  0
 19 33  1  0  0  0  0
M  END
> <PUBCHEM_COMPOUND_CID>
9422

> <PUBCHEM_CONFORMER_RMSD>
0.4

> <PUBCHEM_CONFORMER_DIVERSEORDER>
1

> <PUBCHEM_MMFF94_PARTIAL_CHARGES>
24
10 -0.15
11 -0.15
12 0.14
13 -0.15
14 -0.15
15 -0.15
16 -0.15
17 -0.15
18 -0.15
19 -0.15
20 0.15
21 0.15
22 0.15
23 0.15
27 0.15
28 0.15
29 0.15
30 0.15
31 0.15
32 0.15
33 0.15
4 -0.14
6 -0.15
9 -0.15

> <PUBCHEM_EFFECTIVE_ROTOR_COUNT>
0

> <PUBCHEM_PHARMACOPHORE_FEATURES>
4
6 1 2 3 4 5 10 rings
6 1 2 6 7 8 9 rings
6 3 5 11 13 16 17 rings
6 7 8 14 15 18 19 rings

> <PUBCHEM_HEAVY_ATOM_COUNT>
19

> <PUBCHEM_ATOM_DEF_STEREO_COUNT>
0

> <PUBCHEM_ATOM_UDEF_STEREO_COUNT>
0

> <PUBCHEM_BOND_DEF_STEREO_COUNT>
0

> <PUBCHEM_BOND_UDEF_STEREO_COUNT>
0

> <PUBCHEM_ISOTOPIC_ATOM_COUNT>
0

> <PUBCHEM_COMPONENT_COUNT>
1

> <PUBCHEM_CACTVS_TAUTO_COUNT>
1

> <PUBCHEM_CONFORMER_ID>
000024CE00000001

> <PUBCHEM_MMFF94_ENERGY>
68.9753

> <PUBCHEM_FEATURE_SELFOVERLAP>
20.37

> <PUBCHEM_SHAPE_FINGERPRINT>
10411042 1 17401767922451837775
10608611 8 18341051925426235373
10616163 171 18410572851707820647
10693767 8 17969786482758991278
10948715 1 18410855430221834670
10967382 1 18410855494551197190
11370993 70 18411421691436642776
11471102 20 18410295855970127415
12107183 9 17542781362655680009
12173636 292 18265901258955131588
12390115 104 18191286226799542960
12592029 89 18412261757138714458
12644460 14 18270959171193180547
12788726 201 17408529442384353642
13140716 1 18412267237574850346
13380535 76 18413388730629151131
13583140 156 16772695233509809704
138480 1 17834395996421182178
14178342 30 17976269246312841248
14787075 74 18188493458774692819
14790565 3 18340197501860295852
15042514 8 17980477862853985586
15196674 1 18410575088958046213
15375358 24 18272368685355503699
15442244 35 17976820118643912083
15536298 74 18335137634857505334
16945 1 18194401314712202214
18186145 218 18260536840512903552
19591789 44 18337954489195653027
19784866 9 18336548303975719673
200 152 18113340808282256333
20157964 124 18339086016369678653
20510252 161 18262231106263481729
20645477 70 18261393411721312351
21267235 1 18410002252037629143
21421861 104 17913491512784859963
21524375 3 18343022159973814818
221490 88 18339633550936537555
22854114 111 18412262860786806605
23227448 37 18335422309664096567
2334 1 18338516331200369328
23366157 5 18058444485903802442
23402539 116 18261681376335578356
23558518 356 17623294871178772616
23559900 14 18192717958147083290
25 1 18411421717507146414
2748010 2 18340194207377149934
3091708 16 9191282218884157754
335352 9 18410856573321419806
33824 294 18412545435301726778
34934 24 18409735088540600455
350125 39 18412263969511075588
3545911 37 18411416215543543229
394222 165 18272939314763276450
4214541 1 18410856572794184513
4280585 95 17537709280952036518
474 4 18413388735018953473
474229 33 18339643330793172931
4990 188 17967805059672976660
5104073 3 18341330076124367193
543358 83 18191864737292506849
6138700 20 18266173015212694166
6333272 397 18411418401570776392
633830 44 18333168379472760108
69090 78 18337112271862679094
7364860 26 18265051512550288350
7808743 9 18051133588810626392
8272917 22 18335979886708297871
9709674 26 18410849993025684327
9981440 41 18341054034023180323

> <PUBCHEM_SHAPE_MULTIPOLES>
391.01
8.56
2.87
0.62
2.96
1.67
0
-4.39
0
-1.18
0
0
0
0

> <PUBCHEM_SHAPE_SELFOVERLAP>
895.829

> <PUBCHEM_SHAPE_VOLUME>
186.6

> <PUBCHEM_COORDINATE_TYPE>
2
5
10

$$$$

