13433
  -OEChem-06261214102D

 22 23  0     0  0  0  0  0  0999 V2000
    2.0000   -1.7673    0.0000 O   0  5  0  0  0  0  0  0  0  0  0  0
    3.7320   -1.7673    0.0000 O   0  0  0  0  0  0  0  0  0  0  0  0
    4.6260   -0.3020    0.0000 N   0  0  0  0  0  0  0  0  0  0  0  0
    2.8660   -1.2673    0.0000 N   0  3  0  0  0  0  0  0  0  0  0  0
    3.7320    1.2327    0.0000 C   0  0  0  0  0  0  0  0  0  0  0  0
    3.7320    0.2327    0.0000 C   0  0  0  0  0  0  0  0  0  0  0  0
    2.8660   -0.2673    0.0000 C   0  0  0  0  0  0  0  0  0  0  0  0
    4.6260    1.7673    0.0000 C   0  0  0  0  0  0  0  0  0  0  0  0
    2.8660    1.7327    0.0000 C   0  0  0  0  0  0  0  0  0  0  0  0
    5.5321    0.2119    0.0000 C   0  0  0  0  0  0  0  0  0  0  0  0
    5.5321    1.2535    0.0000 C   0  0  0  0  0  0  0  0  0  0  0  0
    2.0000    0.2327    0.0000 C   0  0  0  0  0  0  0  0  0  0  0  0
    2.0000    1.2327    0.0000 C   0  0  0  0  0  0  0  0  0  0  0  0
    6.3961   -0.2915    0.0000 C   0  0  0  0  0  0  0  0  0  0  0  0
    4.6188    2.3873    0.0000 H   0  0  0  0  0  0  0  0  0  0  0  0
    2.8660    2.3527    0.0000 H   0  0  0  0  0  0  0  0  0  0  0  0
    6.0678    1.5656    0.0000 H   0  0  0  0  0  0  0  0  0  0  0  0
    1.4631   -0.0773    0.0000 H   0  0  0  0  0  0  0  0  0  0  0  0
    1.4631    1.5427    0.0000 H   0  0  0  0  0  0  0  0  0  0  0  0
    6.0841   -0.8272    0.0000 H   0  0  0  0  0  0  0  0  0  0  0  0
    6.9319   -0.6035    0.0000 H   0  0  0  0  0  0  0  0  0  0  0  0
    6.7082    0.2443    0.0000 H   0  0  0  0  0  0  0  0  0  0  0  0
  1  4  1  0  0  0  0
  2  4  2  0  0  0  0
  3  6  1  0  0  0  0
  3 10  2  0  0  0  0
  4  7  1  0  0  0  0
  5  6  2  0  0  0  0
  5  8  1  0  0  0  0
  5  9  1  0  0  0  0
  6  7  1  0  0  0  0
  7 12  2  0  0  0  0
  8 11  2  0  0  0  0
  8 15  1  0  0  0  0
  9 13  2  0  0  0  0
  9 16  1  0  0  0  0
 10 11  1  0  0  0  0
 10 14  1  0  0  0  0
 11 17  1  0  0  0  0
 12 13  1  0  0  0  0
 12 18  1  0  0  0  0
 13 19  1  0  0  0  0
 14 20  1  0  0  0  0
 14 21  1  0  0  0  0
 14 22  1  0  0  0  0
M  CHG  2   1  -1   4   1
M  END
> <PUBCHEM_COMPOUND_CID>
13433

> <PUBCHEM_COMPOUND_CANONICALIZED>
1

> <PUBCHEM_CACTVS_COMPLEXITY>
227

> <PUBCHEM_CACTVS_HBOND_ACCEPTOR>
3

> <PUBCHEM_CACTVS_HBOND_DONOR>
0

> <PUBCHEM_CACTVS_ROTATABLE_BOND>
0

> <PUBCHEM_CACTVS_SUBSKEYS>
AAADccBzMAAAAAAAAAAAAAAAAAAAAAAAAAA8QAAAAAAAAACx8AAAHAAEAAAADAiBHgAywPIYUAChAyRiRwCCgCAhEiAomCAwdJoIYOLAkZGUIAhggIDIyAcQgIAOAAAAQAACACAAAACAAAQAQAAAAAAAAA==

> <PUBCHEM_IUPAC_OPENEYE_NAME>
2-methyl-8-nitro-quinoline

> <PUBCHEM_IUPAC_CAS_NAME>
2-methyl-8-nitroquinoline

> <PUBCHEM_IUPAC_NAME>
2-methyl-8-nitroquinoline

> <PUBCHEM_IUPAC_SYSTEMATIC_NAME>
2-methyl-8-nitro-quinoline

> <PUBCHEM_IUPAC_TRADITIONAL_NAME>
2-methyl-8-nitro-quinoline

> <PUBCHEM_IUPAC_INCHI>
InChI=1S/C10H8N2O2/c1-7-5-6-8-3-2-4-9(12(13)14)10(8)11-7/h2-6H,1H3

> <PUBCHEM_IUPAC_INCHIKEY>
UHPGVDHXHDPYQP-UHFFFAOYSA-N

> <PUBCHEM_XLOGP3>
2

> <PUBCHEM_EXACT_MASS>
188.058578

> <PUBCHEM_MOLECULAR_FORMULA>
C10H8N2O2

> <PUBCHEM_MOLECULAR_WEIGHT>
188.18272

> <PUBCHEM_OPENEYE_CAN_SMILES>
CC1=NC2=C(C=CC=C2[N+](=O)[O-])C=C1

> <PUBCHEM_OPENEYE_ISO_SMILES>
CC1=NC2=C(C=CC=C2[N+](=O)[O-])C=C1

> <PUBCHEM_CACTVS_TPSA>
58.7

> <PUBCHEM_MONOISOTOPIC_WEIGHT>
188.058578

> <PUBCHEM_TOTAL_CHARGE>
0

> <PUBCHEM_HEAVY_ATOM_COUNT>
14

> <PUBCHEM_ATOM_DEF_STEREO_COUNT>
0

> <PUBCHEM_ATOM_UDEF_STEREO_COUNT>
0

> <PUBCHEM_BOND_DEF_STEREO_COUNT>
0

> <PUBCHEM_BOND_UDEF_STEREO_COUNT>
0

> <PUBCHEM_ISOTOPIC_ATOM_COUNT>
0

> <PUBCHEM_COMPONENT_COUNT>
1

> <PUBCHEM_CACTVS_TAUTO_COUNT>
1

> <PUBCHEM_COORDINATE_TYPE>
1
5
255

> <PUBCHEM_BONDANNOTATIONS>
10  11  8
12  13  8
3  10  8
3  6  8
5  6  8
5  8  8
5  9  8
6  7  8
7  12  8
8  11  8
9  13  8

$$$$

