11223
  -OEChem-06261205242D

 45 45  0     1  0  0  0  0  0999 V2000
    4.6200    0.0000    0.0000 Cl  0  0  0  0  0  0  0  0  0  0  0  0
    0.0000    3.5600    0.0000 Cl  0  0  0  0  0  0  0  0  0  0  0  0
    5.6200    4.0000    0.0000 O   0  0  0  0  0  0  0  0  0  0  0  0
    7.6200    5.7320    0.0000 N   0  0  0  0  0  0  0  0  0  0  0  0
    4.6200    4.0000    0.0000 C   0  0  3  0  0  0  0  0  0  0  0  0
    4.6200    3.0000    0.0000 C   0  0  0  0  0  0  0  0  0  0  0  0
    4.6200    5.0000    0.0000 C   0  0  0  0  0  0  0  0  0  0  0  0
    3.6200    4.0000    0.0000 C   0  0  0  0  0  0  0  0  0  0  0  0
    6.1200    4.8660    0.0000 C   0  0  0  0  0  0  0  0  0  0  0  0
    7.1200    4.8660    0.0000 C   0  0  0  0  0  0  0  0  0  0  0  0
    3.7540    2.5000    0.0000 C   0  0  0  0  0  0  0  0  0  0  0  0
    5.4860    2.5000    0.0000 C   0  0  0  0  0  0  0  0  0  0  0  0
    5.4860    5.5000    0.0000 C   0  0  0  0  0  0  0  0  0  0  0  0
    3.7540    5.5000    0.0000 C   0  0  0  0  0  0  0  0  0  0  0  0
    3.7540    1.5000    0.0000 C   0  0  0  0  0  0  0  0  0  0  0  0
    5.4860    1.5000    0.0000 C   0  0  0  0  0  0  0  0  0  0  0  0
    5.4860    6.5000    0.0000 C   0  0  0  0  0  0  0  0  0  0  0  0
    3.7540    6.5000    0.0000 C   0  0  0  0  0  0  0  0  0  0  0  0
    4.6200    1.0000    0.0000 C   0  0  0  0  0  0  0  0  0  0  0  0
    4.6200    7.0000    0.0000 C   0  0  0  0  0  0  0  0  0  0  0  0
    8.6200    5.7320    0.0000 C   0  0  0  0  0  0  0  0  0  0  0  0
    7.1200    6.5981    0.0000 C   0  0  0  0  0  0  0  0  0  0  0  0
    3.6200    4.6200    0.0000 H   0  0  0  0  0  0  0  0  0  0  0  0
    3.0000    4.0000    0.0000 H   0  0  0  0  0  0  0  0  0  0  0  0
    3.6200    3.3800    0.0000 H   0  0  0  0  0  0  0  0  0  0  0  0
    6.2277    5.4766    0.0000 H   0  0  0  0  0  0  0  0  0  0  0  0
    5.5374    5.0781    0.0000 H   0  0  0  0  0  0  0  0  0  0  0  0
    7.0123    4.2554    0.0000 H   0  0  0  0  0  0  0  0  0  0  0  0
    7.7026    4.6540    0.0000 H   0  0  0  0  0  0  0  0  0  0  0  0
    3.2170    2.8100    0.0000 H   0  0  0  0  0  0  0  0  0  0  0  0
    6.0230    2.8100    0.0000 H   0  0  0  0  0  0  0  0  0  0  0  0
    6.0230    5.1900    0.0000 H   0  0  0  0  0  0  0  0  0  0  0  0
    3.2170    5.1900    0.0000 H   0  0  0  0  0  0  0  0  0  0  0  0
    3.2170    1.1900    0.0000 H   0  0  0  0  0  0  0  0  0  0  0  0
    6.0230    1.1900    0.0000 H   0  0  0  0  0  0  0  0  0  0  0  0
    6.0230    6.8100    0.0000 H   0  0  0  0  0  0  0  0  0  0  0  0
    3.2170    6.8100    0.0000 H   0  0  0  0  0  0  0  0  0  0  0  0
    4.6200    7.6200    0.0000 H   0  0  0  0  0  0  0  0  0  0  0  0
    8.6200    5.1120    0.0000 H   0  0  0  0  0  0  0  0  0  0  0  0
    9.2400    5.7320    0.0000 H   0  0  0  0  0  0  0  0  0  0  0  0
    8.6200    6.3520    0.0000 H   0  0  0  0  0  0  0  0  0  0  0  0
    7.6569    6.9081    0.0000 H   0  0  0  0  0  0  0  0  0  0  0  0
    6.8100    7.1350    0.0000 H   0  0  0  0  0  0  0  0  0  0  0  0
    6.5831    6.2881    0.0000 H   0  0  0  0  0  0  0  0  0  0  0  0
    1.0000    3.5600    0.0000 H   0  0  0  0  0  0  0  0  0  0  0  0
  1 19  1  0  0  0  0
  2 45  1  0  0  0  0
  3  5  1  0  0  0  0
  3  9  1  0  0  0  0
  4 10  1  0  0  0  0
  4 21  1  0  0  0  0
  4 22  1  0  0  0  0
  5  6  1  0  0  0  0
  5  7  1  0  0  0  0
  5  8  1  0  0  0  0
  6 11  2  0  0  0  0
  6 12  1  0  0  0  0
  7 13  2  0  0  0  0
  7 14  1  0  0  0  0
  8 23  1  0  0  0  0
  8 24  1  0  0  0  0
  8 25  1  0  0  0  0
  9 10  1  0  0  0  0
  9 26  1  0  0  0  0
  9 27  1  0  0  0  0
 10 28  1  0  0  0  0
 10 29  1  0  0  0  0
 11 15  1  0  0  0  0
 11 30  1  0  0  0  0
 12 16  2  0  0  0  0
 12 31  1  0  0  0  0
 13 17  1  0  0  0  0
 13 32  1  0  0  0  0
 14 18  2  0  0  0  0
 14 33  1  0  0  0  0
 15 19  2  0  0  0  0
 15 34  1  0  0  0  0
 16 19  1  0  0  0  0
 16 35  1  0  0  0  0
 17 20  2  0  0  0  0
 17 36  1  0  0  0  0
 18 20  1  0  0  0  0
 18 37  1  0  0  0  0
 20 38  1  0  0  0  0
 21 39  1  0  0  0  0
 21 40  1  0  0  0  0
 21 41  1  0  0  0  0
 22 42  1  0  0  0  0
 22 43  1  0  0  0  0
 22 44  1  0  0  0  0
M  END
> <PUBCHEM_COMPOUND_CID>
11223

> <PUBCHEM_COMPOUND_CANONICALIZED>
1

> <PUBCHEM_CACTVS_COMPLEXITY>
296

> <PUBCHEM_CACTVS_HBOND_ACCEPTOR>
2

> <PUBCHEM_CACTVS_HBOND_DONOR>
1

> <PUBCHEM_CACTVS_ROTATABLE_BOND>
6

> <PUBCHEM_CACTVS_SUBSKEYS>
AAADceB6IAAGAAAAAAAAAAAAAAAAAAAAAAAwYAAAAAAAAAABQAAAHgIAAAAADEbhmCYyAIMABACAAiBCAAACAAAgBQAIiAAICogKJiKBMxiDMAAkwAEYqAeAwOAOhAAAAAAAAAAIAAAAAAAAAAAAAAAAAA==

> <PUBCHEM_IUPAC_OPENEYE_NAME>
2-[1-(4-chlorophenyl)-1-phenyl-ethoxy]-N,N-dimethyl-ethanamine hydrochloride

> <PUBCHEM_IUPAC_CAS_NAME>
2-[1-(4-chlorophenyl)-1-phenylethoxy]-N,N-dimethylethanamine hydrochloride

> <PUBCHEM_IUPAC_NAME>
2-[1-(4-chlorophenyl)-1-phenylethoxy]-N,N-dimethylethanamine hydrochloride

> <PUBCHEM_IUPAC_SYSTEMATIC_NAME>
2-[1-(4-chlorophenyl)-1-phenyl-ethoxy]-N,N-dimethyl-ethanamine hydrochloride

> <PUBCHEM_IUPAC_TRADITIONAL_NAME>
2-[1-(4-chlorophenyl)-1-phenyl-ethoxy]ethyl-dimethyl-amine hydrochloride

> <PUBCHEM_IUPAC_INCHI>
InChI=1S/C18H22ClNO.ClH/c1-18(21-14-13-20(2)3,15-7-5-4-6-8-15)16-9-11-17(19)12-10-16;/h4-12H,13-14H2,1-3H3;1H

> <PUBCHEM_IUPAC_INCHIKEY>
PAQUKACYLLABHB-UHFFFAOYSA-N

> <PUBCHEM_EXACT_MASS>
339.11567

> <PUBCHEM_MOLECULAR_FORMULA>
C18H23Cl2NO

> <PUBCHEM_MOLECULAR_WEIGHT>
340.28732

> <PUBCHEM_OPENEYE_CAN_SMILES>
CC(C1=CC=CC=C1)(C2=CC=C(C=C2)Cl)OCCN(C)C.Cl

> <PUBCHEM_OPENEYE_ISO_SMILES>
CC(C1=CC=CC=C1)(C2=CC=C(C=C2)Cl)OCCN(C)C.Cl

> <PUBCHEM_CACTVS_TPSA>
12.5

> <PUBCHEM_MONOISOTOPIC_WEIGHT>
339.11567

> <PUBCHEM_TOTAL_CHARGE>
0

> <PUBCHEM_HEAVY_ATOM_COUNT>
22

> <PUBCHEM_ATOM_DEF_STEREO_COUNT>
0

> <PUBCHEM_ATOM_UDEF_STEREO_COUNT>
1

> <PUBCHEM_BOND_DEF_STEREO_COUNT>
0

> <PUBCHEM_BOND_UDEF_STEREO_COUNT>
0

> <PUBCHEM_ISOTOPIC_ATOM_COUNT>
0

> <PUBCHEM_COMPONENT_COUNT>
2

> <PUBCHEM_CACTVS_TAUTO_COUNT>
1

> <PUBCHEM_COORDINATE_TYPE>
1
5
255

> <PUBCHEM_BONDANNOTATIONS>
11  15  8
12  16  8
13  17  8
14  18  8
15  19  8
16  19  8
17  20  8
18  20  8
5  8  3
6  11  8
6  12  8
7  13  8
7  14  8

$$$$

