7846944
  -OEChem-06241222483D

 57 61  0     0  0  0  0  0  0999 V2000
   -4.5111   -1.3673   -0.8990 S   0  0  0  0  0  0  0  0  0  0  0  0
   -0.6143    0.9222   -1.9393 O   0  0  0  0  0  0  0  0  0  0  0  0
   -2.5251    1.9997   -0.3791 O   0  0  0  0  0  0  0  0  0  0  0  0
   -3.2807    3.3456    1.3356 O   0  0  0  0  0  0  0  0  0  0  0  0
    1.0925    2.0253   -0.8035 N   0  0  0  0  0  0  0  0  0  0  0  0
   -3.1832   -0.5725    1.1644 N   0  0  0  0  0  0  0  0  0  0  0  0
    3.1625    0.7440   -0.6527 C   0  0  0  0  0  0  0  0  0  0  0  0
    4.6921    0.9013    1.3624 C   0  0  0  0  0  0  0  0  0  0  0  0
    3.4051   -1.2216    0.9292 C   0  0  0  0  0  0  0  0  0  0  0  0
    5.3221   -0.5809   -0.5758 C   0  0  0  0  0  0  0  0  0  0  0  0
    3.7200    1.6723    0.4523 C   0  0  0  0  0  0  0  0  0  0  0  0
    2.4364   -0.4448    0.0203 C   0  0  0  0  0  0  0  0  0  0  0  0
    4.3481    0.1939   -1.4807 C   0  0  0  0  0  0  0  0  0  0  0  0
    3.9491   -0.2770    2.0137 C   0  0  0  0  0  0  0  0  0  0  0  0
    5.8565    0.3607    0.5162 C   0  0  0  0  0  0  0  0  0  0  0  0
    4.5760   -1.7518    0.0850 C   0  0  0  0  0  0  0  0  0  0  0  0
    2.1959    1.5143   -1.5561 C   0  0  0  0  0  0  0  0  0  0  0  0
   -0.2363    1.6868   -1.0558 C   0  0  0  0  0  0  0  0  0  0  0  0
   -1.1921    2.3747   -0.1045 C   0  0  0  0  0  0  0  0  0  0  0  0
   -3.4916    2.5607    0.4213 C   0  0  0  0  0  0  0  0  0  0  0  0
   -4.8541    2.0614   -0.0029 C   0  0  0  0  0  0  0  0  0  0  0  0
   -5.2396    0.7688    0.7181 C   0  0  0  0  0  0  0  0  0  0  0  0
   -4.2523   -0.3356    0.4404 C   0  0  0  0  0  0  0  0  0  0  0  0
   -3.0705   -2.2276   -0.5022 C   0  0  0  0  0  0  0  0  0  0  0  0
   -2.4950   -1.6550    0.6361 C   0  0  0  0  0  0  0  0  0  0  0  0
   -2.4913   -3.3297   -1.1514 C   0  0  0  0  0  0  0  0  0  0  0  0
   -1.2974   -2.2070    1.1405 C   0  0  0  0  0  0  0  0  0  0  0  0
   -1.3063   -3.8566   -0.6318 C   0  0  0  0  0  0  0  0  0  0  0  0
   -0.7154   -3.3042    0.4992 C   0  0  0  0  0  0  0  0  0  0  0  0
    5.0796    1.5693    2.1398 H   0  0  0  0  0  0  0  0  0  0  0  0
    2.8785   -2.0601    1.3988 H   0  0  0  0  0  0  0  0  0  0  0  0
    6.1562   -0.9645   -1.1740 H   0  0  0  0  0  0  0  0  0  0  0  0
    2.9167    2.0785    1.0782 H   0  0  0  0  0  0  0  0  0  0  0  0
    4.2368    2.5303    0.0036 H   0  0  0  0  0  0  0  0  0  0  0  0
    2.0248   -1.1194   -0.7416 H   0  0  0  0  0  0  0  0  0  0  0  0
    1.5893   -0.1005    0.6265 H   0  0  0  0  0  0  0  0  0  0  0  0
    4.8800    1.0173   -1.9747 H   0  0  0  0  0  0  0  0  0  0  0  0
    3.9810   -0.4665   -2.2769 H   0  0  0  0  0  0  0  0  0  0  0  0
    3.1246    0.0962    2.6337 H   0  0  0  0  0  0  0  0  0  0  0  0
    4.6265   -0.8239    2.6809 H   0  0  0  0  0  0  0  0  0  0  0  0
    6.5679   -0.1748    1.1569 H   0  0  0  0  0  0  0  0  0  0  0  0
    6.4049    1.1929    0.0580 H   0  0  0  0  0  0  0  0  0  0  0  0
    4.2024   -2.4398   -0.6833 H   0  0  0  0  0  0  0  0  0  0  0  0
    5.2645   -2.3249    0.7181 H   0  0  0  0  0  0  0  0  0  0  0  0
    2.6970    2.3747   -2.0143 H   0  0  0  0  0  0  0  0  0  0  0  0
    1.8336    0.8759   -2.3697 H   0  0  0  0  0  0  0  0  0  0  0  0
    1.2791    2.7348   -0.1012 H   0  0  0  0  0  0  0  0  0  0  0  0
   -0.9275    2.0839    0.9189 H   0  0  0  0  0  0  0  0  0  0  0  0
   -1.0776    3.4583   -0.2236 H   0  0  0  0  0  0  0  0  0  0  0  0
   -5.5828    2.8490    0.2213 H   0  0  0  0  0  0  0  0  0  0  0  0
   -4.8652    1.9352   -1.0922 H   0  0  0  0  0  0  0  0  0  0  0  0
   -6.2525    0.4688    0.4254 H   0  0  0  0  0  0  0  0  0  0  0  0
   -5.2620    0.9451    1.8009 H   0  0  0  0  0  0  0  0  0  0  0  0
   -2.9467   -3.7661   -2.0351 H   0  0  0  0  0  0  0  0  0  0  0  0
   -0.8258   -1.7816    2.0219 H   0  0  0  0  0  0  0  0  0  0  0  0
   -0.8410   -4.7091   -1.1197 H   0  0  0  0  0  0  0  0  0  0  0  0
    0.2076   -3.7257    0.8878 H   0  0  0  0  0  0  0  0  0  0  0  0
  1 23  1  0  0  0  0
  1 24  1  0  0  0  0
  2 18  2  0  0  0  0
  3 19  1  0  0  0  0
  3 20  1  0  0  0  0
  4 20  2  0  0  0  0
  5 17  1  0  0  0  0
  5 18  1  0  0  0  0
  5 47  1  0  0  0  0
  6 23  2  0  0  0  0
  6 25  1  0  0  0  0
  7 11  1  0  0  0  0
  7 12  1  0  0  0  0
  7 13  1  0  0  0  0
  7 17  1  0  0  0  0
  8 11  1  0  0  0  0
  8 14  1  0  0  0  0
  8 15  1  0  0  0  0
  8 30  1  0  0  0  0
  9 12  1  0  0  0  0
  9 14  1  0  0  0  0
  9 16  1  0  0  0  0
  9 31  1  0  0  0  0
 10 13  1  0  0  0  0
 10 15  1  0  0  0  0
 10 16  1  0  0  0  0
 10 32  1  0  0  0  0
 11 33  1  0  0  0  0
 11 34  1  0  0  0  0
 12 35  1  0  0  0  0
 12 36  1  0  0  0  0
 13 37  1  0  0  0  0
 13 38  1  0  0  0  0
 14 39  1  0  0  0  0
 14 40  1  0  0  0  0
 15 41  1  0  0  0  0
 15 42  1  0  0  0  0
 16 43  1  0  0  0  0
 16 44  1  0  0  0  0
 17 45  1  0  0  0  0
 17 46  1  0  0  0  0
 18 19  1  0  0  0  0
 19 48  1  0  0  0  0
 19 49  1  0  0  0  0
 20 21  1  0  0  0  0
 21 22  1  0  0  0  0
 21 50  1  0  0  0  0
 21 51  1  0  0  0  0
 22 23  1  0  0  0  0
 22 52  1  0  0  0  0
 22 53  1  0  0  0  0
 24 25  1  0  0  0  0
 24 26  2  0  0  0  0
 25 27  2  0  0  0  0
 26 28  1  0  0  0  0
 26 54  1  0  0  0  0
 27 29  1  0  0  0  0
 27 55  1  0  0  0  0
 28 29  2  0  0  0  0
 28 56  1  0  0  0  0
 29 57  1  0  0  0  0
M  END
> <PUBCHEM_COMPOUND_CID>
7846944

> <PUBCHEM_CONFORMER_RMSD>
1.2

> <PUBCHEM_CONFORMER_DIVERSEORDER>
1
113
55
20
7
19
116
47
37
27
43
110
40
67
104
122
3
92
33
17
66
115
5
106
124
125
48
42
114
74
6
34
61
95
14
99
68
94
21
4
16
60
25
10
109
73
59
22
58
12
85
8
86
15
63
101
41
87
118
77
52
93
83
9
112
53
103
44
107
97
71
89
45
26
102
121
30
39
56
51
23
65
91
79
13
36
57
123
108
120
75
84
111
38
117
90
98
29
31
28
2
62
11
50
46
119
64
69
35
24
100
70
76
78
18
82
88
81
96
80
105
32
49
72
54

> <PUBCHEM_MMFF94_PARTIAL_CHARGES>
24
1 -0.08
17 0.3
18 0.57
19 0.34
2 -0.57
20 0.66
21 0.06
22 0.18
23 0.2
24 0.04
25 0.23
26 -0.15
27 -0.15
28 -0.15
29 -0.15
3 -0.43
4 -0.57
47 0.37
5 -0.73
54 0.15
55 0.15
56 0.15
57 0.15
6 -0.57

> <PUBCHEM_EFFECTIVE_ROTOR_COUNT>
10.2

> <PUBCHEM_PHARMACOPHORE_FEATURES>
10
1 2 acceptor
1 4 acceptor
1 5 donor
1 6 acceptor
5 1 6 23 24 25 rings
6 24 25 26 27 28 29 rings
6 7 8 10 11 13 15 rings
6 7 8 9 11 12 14 rings
6 7 9 10 12 13 16 rings
6 8 9 10 14 15 16 rings

> <PUBCHEM_HEAVY_ATOM_COUNT>
29

> <PUBCHEM_ATOM_DEF_STEREO_COUNT>
0

> <PUBCHEM_ATOM_UDEF_STEREO_COUNT>
0

> <PUBCHEM_BOND_DEF_STEREO_COUNT>
0

> <PUBCHEM_BOND_UDEF_STEREO_COUNT>
0

> <PUBCHEM_ISOTOPIC_ATOM_COUNT>
0

> <PUBCHEM_COMPONENT_COUNT>
1

> <PUBCHEM_CACTVS_TAUTO_COUNT>
4

> <PUBCHEM_CONFORMER_ID>
0077BC2000000001

> <PUBCHEM_MMFF94_ENERGY>
53.3879

> <PUBCHEM_FEATURE_SELFOVERLAP>
63.332

> <PUBCHEM_SHAPE_FINGERPRINT>
11014199 57 17907296550852957962
11513181 2 18261110841486445183
11552529 35 18334582313019235168
11578080 2 17969228841442598288
12422481 6 17916017057193492929
12553582 1 18201436913904665390
12633257 1 18409725132257899125
12788726 201 18265883684086288093
12978246 48 18412821417394846713
13583140 156 17168150000998325546
14081887 123 18263652774882708968
14840074 17 17917704751507172237
15001296 14 18200317593866374425
15297060 5 18187644760325949315
15484559 13 15542964350731820542
15537594 2 17775282794200134384
16120349 306 18342182219068590251
16728300 4 18060142059507231419
17818456 19 18410852144561219453
20511986 3 17988651774197468044
20554085 129 18044666523599074273
20764821 26 18196089078357879494
23559900 14 18260823787552450836
23728640 28 18410847734146842539
3383291 50 18341048511302327507
338550 245 18272645775107256230
339767 52 18131078086779938714
469060 322 16773801410995615503
5085150 59 18338527434339793261
508706 21 18261663818288129390
5309563 4 16900165774078587195
602551 16 18408884032006968052
6287921 2 17470448895010711963
653340 110 18408892844984499400
7064713 232 18339642355529609249

> <PUBCHEM_SHAPE_MULTIPOLES>
573.09
12.82
4.12
1.51
6.46
1.54
0.03
-1.84
-2.04
-5.13
0.19
0.76
-0.12
-1.2

> <PUBCHEM_SHAPE_SELFOVERLAP>
1230.839

> <PUBCHEM_SHAPE_VOLUME>
317.8

> <PUBCHEM_COORDINATE_TYPE>
2
5
10

$$$$

