8250
  -OEChem-06261202422D

 39 38  0     0  0  0  0  0  0999 V2000
    0.0000    5.7150    0.0000 Cl  0  5  0  0  0  0  0  0  0  0  0  0
   10.5991    5.7150    0.0000 Cl  0  5  0  0  0  0  0  0  0  0  0  0
    6.3301    5.1200    0.0000 O   0  0  0  0  0  0  0  0  0  0  0  0
    8.0622   11.1200    0.0000 O   0  0  0  0  0  0  0  0  0  0  0  0
    2.0000    0.6200    0.0000 O   0  0  0  0  0  0  0  0  0  0  0  0
    7.1962    6.6200    0.0000 N   0  3  0  0  0  0  0  0  0  0  0  0
    5.4641    3.6200    0.0000 N   0  3  0  0  0  0  0  0  0  0  0  0
    8.0622   10.1200    0.0000 N   0  0  0  0  0  0  0  0  0  0  0  0
    2.8660    1.1200    0.0000 N   0  0  0  0  0  0  0  0  0  0  0  0
    7.1962    5.6200    0.0000 C   0  0  0  0  0  0  0  0  0  0  0  0
    6.3301    4.1200    0.0000 C   0  0  0  0  0  0  0  0  0  0  0  0
    6.3301    7.1200    0.0000 C   0  0  0  0  0  0  0  0  0  0  0  0
    4.5981    4.1200    0.0000 C   0  0  0  0  0  0  0  0  0  0  0  0
    8.0622    7.1200    0.0000 C   0  0  0  0  0  0  0  0  0  0  0  0
    5.4641    2.6200    0.0000 C   0  0  0  0  0  0  0  0  0  0  0  0
    7.1962    8.6200    0.0000 C   0  0  0  0  0  0  0  0  0  0  0  0
    3.7321    2.6200    0.0000 C   0  0  0  0  0  0  0  0  0  0  0  0
    6.3301    8.1200    0.0000 C   0  0  0  0  0  0  0  0  0  0  0  0
    3.7321    3.6200    0.0000 C   0  0  0  0  0  0  0  0  0  0  0  0
    8.0622    8.1200    0.0000 C   0  0  0  0  0  0  0  0  0  0  0  0
    4.5981    2.1200    0.0000 C   0  0  0  0  0  0  0  0  0  0  0  0
    7.1962    9.6200    0.0000 C   0  0  0  0  0  0  0  0  0  0  0  0
    2.8660    2.1200    0.0000 C   0  0  0  0  0  0  0  0  0  0  0  0
    7.4082    5.0374    0.0000 H   0  0  0  0  0  0  0  0  0  0  0  0
    7.8067    5.7277    0.0000 H   0  0  0  0  0  0  0  0  0  0  0  0
    6.5422    3.5374    0.0000 H   0  0  0  0  0  0  0  0  0  0  0  0
    6.9407    4.2277    0.0000 H   0  0  0  0  0  0  0  0  0  0  0  0
    5.7932    6.8100    0.0000 H   0  0  0  0  0  0  0  0  0  0  0  0
    4.5981    4.7400    0.0000 H   0  0  0  0  0  0  0  0  0  0  0  0
    8.5991    6.8100    0.0000 H   0  0  0  0  0  0  0  0  0  0  0  0
    6.0010    2.3100    0.0000 H   0  0  0  0  0  0  0  0  0  0  0  0
    5.7932    8.4300    0.0000 H   0  0  0  0  0  0  0  0  0  0  0  0
    3.1951    3.9300    0.0000 H   0  0  0  0  0  0  0  0  0  0  0  0
    8.5991    8.4300    0.0000 H   0  0  0  0  0  0  0  0  0  0  0  0
    4.5981    1.5000    0.0000 H   0  0  0  0  0  0  0  0  0  0  0  0
    6.6592    9.9300    0.0000 H   0  0  0  0  0  0  0  0  0  0  0  0
    2.3291    2.4300    0.0000 H   0  0  0  0  0  0  0  0  0  0  0  0
    8.5991   11.4300    0.0000 H   0  0  0  0  0  0  0  0  0  0  0  0
    2.0000    0.0000    0.0000 H   0  0  0  0  0  0  0  0  0  0  0  0
  3 10  1  0  0  0  0
  3 11  1  0  0  0  0
  4  8  1  0  0  0  0
  4 38  1  0  0  0  0
  5  9  1  0  0  0  0
  5 39  1  0  0  0  0
  6 10  1  0  0  0  0
  6 12  2  0  0  0  0
  6 14  1  0  0  0  0
  7 11  1  0  0  0  0
  7 13  2  0  0  0  0
  7 15  1  0  0  0  0
  8 22  2  3  0  0  0
  9 23  2  3  0  0  0
 10 24  1  0  0  0  0
 10 25  1  0  0  0  0
 11 26  1  0  0  0  0
 11 27  1  0  0  0  0
 12 18  1  0  0  0  0
 12 28  1  0  0  0  0
 13 19  1  0  0  0  0
 13 29  1  0  0  0  0
 14 20  2  0  0  0  0
 14 30  1  0  0  0  0
 15 21  2  0  0  0  0
 15 31  1  0  0  0  0
 16 18  2  0  0  0  0
 16 20  1  0  0  0  0
 16 22  1  0  0  0  0
 17 19  2  0  0  0  0
 17 21  1  0  0  0  0
 17 23  1  0  0  0  0
 18 32  1  0  0  0  0
 19 33  1  0  0  0  0
 20 34  1  0  0  0  0
 21 35  1  0  0  0  0
 22 36  1  0  0  0  0
 23 37  1  0  0  0  0
M  CHG  4   1  -1   2  -1   6   1   7   1
M  END
> <PUBCHEM_COMPOUND_CID>
8250

> <PUBCHEM_COMPOUND_CANONICALIZED>
1

> <PUBCHEM_CACTVS_COMPLEXITY>
303

> <PUBCHEM_CACTVS_HBOND_ACCEPTOR>
7

> <PUBCHEM_CACTVS_HBOND_DONOR>
2

> <PUBCHEM_CACTVS_ROTATABLE_BOND>
6

> <PUBCHEM_CACTVS_SUBSKEYS>
AAADceBzsAAGAAAAAAAAAAAAAAAAAAAAAAAsWAAAAAAAAAAB4AAAHgAECAAADADBGgY8gJMcFACgAjBnRACCgCAxAiAI2CA4ZJgIIOLAkZGEIAhggADIyAYQAAAKAAAAAAAAAAAAAAAAAAAAAAAAAAAAAA==

> <PUBCHEM_IUPAC_OPENEYE_NAME>
1-[[4-(hydroxyiminomethyl)pyridin-1-ium-1-yl]methoxymethyl]pyridin-1-ium-4-carbaldehyde oxime dichloride

> <PUBCHEM_IUPAC_CAS_NAME>
1-[[4-(hydroxyiminomethyl)-1-pyridin-1-iumyl]methoxymethyl]-4-pyridin-1-iumcarboxaldehyde oxime dichloride

> <PUBCHEM_IUPAC_NAME>
N-[[1-[[4-(hydroxyiminomethyl)pyridin-1-ium-1-yl]methoxymethyl]pyridin-1-ium-4-yl]methylidene]hydroxylamine dichloride

> <PUBCHEM_IUPAC_SYSTEMATIC_NAME>
N-[[1-[[4-(hydroxyiminomethyl)pyridin-1-ium-1-yl]methoxymethyl]pyridin-1-ium-4-yl]methylidene]hydroxylamine dichloride

> <PUBCHEM_IUPAC_TRADITIONAL_NAME>
1-[[4-(hydroximinomethyl)pyridin-1-ium-1-yl]methoxymethyl]pyridin-1-ium-4-carbaldehyde oxime dichloride

> <PUBCHEM_IUPAC_INCHI>
InChI=1S/C14H14N4O3.2ClH/c19-15-9-13-1-5-17(6-2-13)11-21-12-18-7-3-14(4-8-18)10-16-20;;/h1-10H,11-12H2;2*1H

> <PUBCHEM_IUPAC_INCHIKEY>
ZIFJVJZWVSPZLE-UHFFFAOYSA-N

> <PUBCHEM_XLOGP3_AA>
5.105

> <PUBCHEM_EXACT_MASS>
358.059946

> <PUBCHEM_MOLECULAR_FORMULA>
C14H16Cl2N4O3

> <PUBCHEM_MOLECULAR_WEIGHT>
359.20784

> <PUBCHEM_OPENEYE_CAN_SMILES>
C1=C[N+](=CC=C1C=NO)COC[N+]2=CC=C(C=C2)C=NO.[Cl-].[Cl-]

> <PUBCHEM_OPENEYE_ISO_SMILES>
C1=C[N+](=CC=C1C=NO)COC[N+]2=CC=C(C=C2)C=NO.[Cl-].[Cl-]

> <PUBCHEM_CACTVS_TPSA>
82.2

> <PUBCHEM_MONOISOTOPIC_WEIGHT>
358.059946

> <PUBCHEM_TOTAL_CHARGE>
0

> <PUBCHEM_HEAVY_ATOM_COUNT>
23

> <PUBCHEM_ATOM_DEF_STEREO_COUNT>
0

> <PUBCHEM_ATOM_UDEF_STEREO_COUNT>
0

> <PUBCHEM_BOND_DEF_STEREO_COUNT>
0

> <PUBCHEM_BOND_UDEF_STEREO_COUNT>
2

> <PUBCHEM_ISOTOPIC_ATOM_COUNT>
0

> <PUBCHEM_COMPONENT_COUNT>
3

> <PUBCHEM_CACTVS_TAUTO_COUNT>
3

> <PUBCHEM_COORDINATE_TYPE>
1
5
255

> <PUBCHEM_BONDANNOTATIONS>
12  18  8
13  19  8
14  20  8
15  21  8
16  18  8
16  20  8
17  19  8
17  21  8
6  12  8
6  14  8
7  13  8
7  15  8

$$$$

