17395727
  -OEChem-06241222522D

 43 46  0     0  0  0  0  0  0999 V2000
    8.9962   -0.5000    0.0000 O   0  0  0  0  0  0  0  0  0  0  0  0
    2.8680    1.0241    0.0000 O   0  0  0  0  0  0  0  0  0  0  0  0
    8.1301   -2.0000    0.0000 O   0  0  0  0  0  0  0  0  0  0  0  0
   11.5942    2.0000    0.0000 O   0  0  0  0  0  0  0  0  0  0  0  0
   11.5942   -1.0000    0.0000 N   0  0  0  0  0  0  0  0  0  0  0  0
   10.7282    0.5000    0.0000 N   0  0  0  0  0  0  0  0  0  0  0  0
    5.5320   -0.5000    0.0000 C   0  0  0  0  0  0  0  0  0  0  0  0
    5.5320    0.5000    0.0000 C   0  0  0  0  0  0  0  0  0  0  0  0
   12.4602   -0.5000    0.0000 C   0  0  0  0  0  0  0  0  0  0  0  0
    7.2641   -0.5000    0.0000 C   0  0  0  0  0  0  0  0  0  0  0  0
    6.3981   -1.0000    0.0000 C   0  0  0  0  0  0  0  0  0  0  0  0
   12.4602    0.5000    0.0000 C   0  0  0  0  0  0  0  0  0  0  0  0
   10.7282   -0.5000    0.0000 C   0  0  0  0  0  0  0  0  0  0  0  0
    6.3981    1.0000    0.0000 C   0  0  0  0  0  0  0  0  0  0  0  0
    4.6381    1.0347    0.0000 C   0  0  0  0  0  0  0  0  0  0  0  0
    7.2641    0.5000    0.0000 C   0  0  0  0  0  0  0  0  0  0  0  0
    4.6381   -1.0347    0.0000 C   0  0  0  0  0  0  0  0  0  0  0  0
    9.8622   -1.0000    0.0000 C   0  0  0  0  0  0  0  0  0  0  0  0
    3.7320    0.5208    0.0000 C   0  0  0  0  0  0  0  0  0  0  0  0
    3.7320   -0.5208    0.0000 C   0  0  0  0  0  0  0  0  0  0  0  0
   13.3542   -1.0347    0.0000 C   0  0  0  0  0  0  0  0  0  0  0  0
    8.1301   -1.0000    0.0000 C   0  0  0  0  0  0  0  0  0  0  0  0
   11.5942    1.0000    0.0000 C   0  0  0  0  0  0  0  0  0  0  0  0
   13.3542    1.0347    0.0000 C   0  0  0  0  0  0  0  0  0  0  0  0
   14.2603   -0.5208    0.0000 C   0  0  0  0  0  0  0  0  0  0  0  0
   14.2603    0.5208    0.0000 C   0  0  0  0  0  0  0  0  0  0  0  0
    2.0000    0.5275    0.0000 C   0  0  0  0  0  0  0  0  0  0  0  0
    6.3981   -1.6200    0.0000 H   0  0  0  0  0  0  0  0  0  0  0  0
    6.3981    1.6200    0.0000 H   0  0  0  0  0  0  0  0  0  0  0  0
   11.5942   -1.6200    0.0000 H   0  0  0  0  0  0  0  0  0  0  0  0
    4.6453    1.6546    0.0000 H   0  0  0  0  0  0  0  0  0  0  0  0
    7.8010    0.8100    0.0000 H   0  0  0  0  0  0  0  0  0  0  0  0
    4.6453   -1.6546    0.0000 H   0  0  0  0  0  0  0  0  0  0  0  0
    9.4636   -1.4750    0.0000 H   0  0  0  0  0  0  0  0  0  0  0  0
   10.2607   -1.4750    0.0000 H   0  0  0  0  0  0  0  0  0  0  0  0
    3.1963   -0.8329    0.0000 H   0  0  0  0  0  0  0  0  0  0  0  0
   13.3470   -1.6546    0.0000 H   0  0  0  0  0  0  0  0  0  0  0  0
   13.3470    1.6546    0.0000 H   0  0  0  0  0  0  0  0  0  0  0  0
   14.7960   -0.8329    0.0000 H   0  0  0  0  0  0  0  0  0  0  0  0
   14.7960    0.8329    0.0000 H   0  0  0  0  0  0  0  0  0  0  0  0
    1.6921    1.0656    0.0000 H   0  0  0  0  0  0  0  0  0  0  0  0
    1.4619    0.2196    0.0000 H   0  0  0  0  0  0  0  0  0  0  0  0
    2.3079   -0.0106    0.0000 H   0  0  0  0  0  0  0  0  0  0  0  0
  1 18  1  0  0  0  0
  1 22  1  0  0  0  0
  2 19  1  0  0  0  0
  2 27  1  0  0  0  0
  3 22  2  0  0  0  0
  4 23  2  0  0  0  0
  5  9  1  0  0  0  0
  5 13  1  0  0  0  0
  5 30  1  0  0  0  0
  6 13  2  0  0  0  0
  6 23  1  0  0  0  0
  7  8  2  0  0  0  0
  7 11  1  0  0  0  0
  7 17  1  0  0  0  0
  8 14  1  0  0  0  0
  8 15  1  0  0  0  0
  9 12  1  0  0  0  0
  9 21  2  0  0  0  0
 10 11  2  0  0  0  0
 10 16  1  0  0  0  0
 10 22  1  0  0  0  0
 11 28  1  0  0  0  0
 12 23  1  0  0  0  0
 12 24  2  0  0  0  0
 13 18  1  0  0  0  0
 14 16  2  0  0  0  0
 14 29  1  0  0  0  0
 15 19  2  0  0  0  0
 15 31  1  0  0  0  0
 16 32  1  0  0  0  0
 17 20  2  0  0  0  0
 17 33  1  0  0  0  0
 18 34  1  0  0  0  0
 18 35  1  0  0  0  0
 19 20  1  0  0  0  0
 20 36  1  0  0  0  0
 21 25  1  0  0  0  0
 21 37  1  0  0  0  0
 24 26  1  0  0  0  0
 24 38  1  0  0  0  0
 25 26  2  0  0  0  0
 25 39  1  0  0  0  0
 26 40  1  0  0  0  0
 27 41  1  0  0  0  0
 27 42  1  0  0  0  0
 27 43  1  0  0  0  0
M  END
> <PUBCHEM_COMPOUND_CID>
17395727

> <PUBCHEM_COMPOUND_CANONICALIZED>
1

> <PUBCHEM_CACTVS_COMPLEXITY>
605

> <PUBCHEM_CACTVS_HBOND_ACCEPTOR>
4

> <PUBCHEM_CACTVS_HBOND_DONOR>
1

> <PUBCHEM_CACTVS_ROTATABLE_BOND>
5

> <PUBCHEM_CACTVS_SUBSKEYS>
AAADceB7OAAAAAAAAAAAAAAAAAAAAAAAAAAwYMEAAAAAAADBVAAAHgAQAAAADAyhmAIzzsLABACoAifyfASCCAElIgAJiAEWbMgOJjrE/ZuHMahk0BHY6ceYyPCO4AADAAASAADAAAYAACQAAAAAAAAAAA==

> <PUBCHEM_IUPAC_OPENEYE_NAME>
(4-oxo-1H-quinazolin-2-yl)methyl 6-methoxynaphthalene-2-carboxylate

> <PUBCHEM_IUPAC_CAS_NAME>
6-methoxy-2-naphthalenecarboxylic acid (4-oxo-1H-quinazolin-2-yl)methyl ester

> <PUBCHEM_IUPAC_NAME>
(4-oxo-1H-quinazolin-2-yl)methyl 6-methoxynaphthalene-2-carboxylate

> <PUBCHEM_IUPAC_SYSTEMATIC_NAME>
(4-oxidanylidene-1H-quinazolin-2-yl)methyl 6-methoxynaphthalene-2-carboxylate

> <PUBCHEM_IUPAC_TRADITIONAL_NAME>
6-methoxynaphthalene-2-carboxylic acid (4-keto-1H-quinazolin-2-yl)methyl ester

> <PUBCHEM_IUPAC_INCHI>
InChI=1S/C21H16N2O4/c1-26-16-9-8-13-10-15(7-6-14(13)11-16)21(25)27-12-19-22-18-5-3-2-4-17(18)20(24)23-19/h2-11H,12H2,1H3,(H,22,23,24)

> <PUBCHEM_IUPAC_INCHIKEY>
VPRWRDMABJWKAC-UHFFFAOYSA-N

> <PUBCHEM_XLOGP3_AA>
3.5

> <PUBCHEM_EXACT_MASS>
360.111007

> <PUBCHEM_MOLECULAR_FORMULA>
C21H16N2O4

> <PUBCHEM_MOLECULAR_WEIGHT>
360.36274

> <PUBCHEM_OPENEYE_CAN_SMILES>
COC1=CC2=C(C=C1)C=C(C=C2)C(=O)OCC3=NC(=O)C4=CC=CC=C4N3

> <PUBCHEM_OPENEYE_ISO_SMILES>
COC1=CC2=C(C=C1)C=C(C=C2)C(=O)OCC3=NC(=O)C4=CC=CC=C4N3

> <PUBCHEM_CACTVS_TPSA>
77

> <PUBCHEM_MONOISOTOPIC_WEIGHT>
360.111007

> <PUBCHEM_TOTAL_CHARGE>
0

> <PUBCHEM_HEAVY_ATOM_COUNT>
27

> <PUBCHEM_ATOM_DEF_STEREO_COUNT>
0

> <PUBCHEM_ATOM_UDEF_STEREO_COUNT>
0

> <PUBCHEM_BOND_DEF_STEREO_COUNT>
0

> <PUBCHEM_BOND_UDEF_STEREO_COUNT>
0

> <PUBCHEM_ISOTOPIC_ATOM_COUNT>
0

> <PUBCHEM_COMPONENT_COUNT>
1

> <PUBCHEM_CACTVS_TAUTO_COUNT>
10

> <PUBCHEM_COORDINATE_TYPE>
1
5
255

> <PUBCHEM_BONDANNOTATIONS>
10  11  8
10  16  8
12  23  8
12  24  8
14  16  8
15  19  8
17  20  8
19  20  8
21  25  8
24  26  8
25  26  8
5  13  8
5  9  8
6  13  8
6  23  8
7  11  8
7  17  8
7  8  8
8  14  8
8  15  8
9  12  8
9  21  8

$$$$

