11073
  -OEChem-06261205182D

 43 44  0     0  0  0  0  0  0999 V2000
    3.7320   -0.4050    0.0000 O   0  0  0  0  0  0  0  0  0  0  0  0
    5.4641   -0.4050    0.0000 O   0  0  0  0  0  0  0  0  0  0  0  0
    2.8660   -2.9050    0.0000 N   0  0  0  0  0  0  0  0  0  0  0  0
    4.5981    4.0950    0.0000 N   0  0  0  0  0  0  0  0  0  0  0  0
    2.8660   -1.9050    0.0000 C   0  0  0  0  0  0  0  0  0  0  0  0
    2.0000   -3.4050    0.0000 C   0  0  0  0  0  0  0  0  0  0  0  0
    3.7320   -3.4050    0.0000 C   0  0  0  0  0  0  0  0  0  0  0  0
    3.7320   -1.4050    0.0000 C   0  0  0  0  0  0  0  0  0  0  0  0
    5.4641    1.5950    0.0000 C   0  0  0  0  0  0  0  0  0  0  0  0
    4.5981    1.0950    0.0000 C   0  0  0  0  0  0  0  0  0  0  0  0
    5.4641    2.5950    0.0000 C   0  0  0  0  0  0  0  0  0  0  0  0
    2.0000   -4.4050    0.0000 C   0  0  0  0  0  0  0  0  0  0  0  0
    3.7320   -4.4050    0.0000 C   0  0  0  0  0  0  0  0  0  0  0  0
    4.5981    3.0950    0.0000 C   0  0  0  0  0  0  0  0  0  0  0  0
    4.5981    0.0950    0.0000 C   0  0  0  0  0  0  0  0  0  0  0  0
    3.7320    1.5950    0.0000 C   0  0  0  0  0  0  0  0  0  0  0  0
    6.3580    1.0603    0.0000 C   0  0  0  0  0  0  0  0  0  0  0  0
    3.7320    2.5950    0.0000 C   0  0  0  0  0  0  0  0  0  0  0  0
    6.3580    3.1297    0.0000 C   0  0  0  0  0  0  0  0  0  0  0  0
    7.2641    1.5742    0.0000 C   0  0  0  0  0  0  0  0  0  0  0  0
    7.2641    2.6158    0.0000 C   0  0  0  0  0  0  0  0  0  0  0  0
    2.6540   -1.3224    0.0000 H   0  0  0  0  0  0  0  0  0  0  0  0
    2.2554   -2.0127    0.0000 H   0  0  0  0  0  0  0  0  0  0  0  0
    1.7880   -2.8224    0.0000 H   0  0  0  0  0  0  0  0  0  0  0  0
    1.3894   -3.5127    0.0000 H   0  0  0  0  0  0  0  0  0  0  0  0
    4.3426   -3.5127    0.0000 H   0  0  0  0  0  0  0  0  0  0  0  0
    3.9441   -2.8224    0.0000 H   0  0  0  0  0  0  0  0  0  0  0  0
    3.9441   -1.9876    0.0000 H   0  0  0  0  0  0  0  0  0  0  0  0
    4.3426   -1.2973    0.0000 H   0  0  0  0  0  0  0  0  0  0  0  0
    3.1120   -4.4050    0.0000 H   0  0  0  0  0  0  0  0  0  0  0  0
    3.7320   -5.0250    0.0000 H   0  0  0  0  0  0  0  0  0  0  0  0
    1.3800   -4.4050    0.0000 H   0  0  0  0  0  0  0  0  0  0  0  0
    2.0000   -5.0250    0.0000 H   0  0  0  0  0  0  0  0  0  0  0  0
    2.6200   -4.4050    0.0000 H   0  0  0  0  0  0  0  0  0  0  0  0
    4.3520   -4.4050    0.0000 H   0  0  0  0  0  0  0  0  0  0  0  0
    3.1951    1.2850    0.0000 H   0  0  0  0  0  0  0  0  0  0  0  0
    6.3509    0.4404    0.0000 H   0  0  0  0  0  0  0  0  0  0  0  0
    3.1951    2.9050    0.0000 H   0  0  0  0  0  0  0  0  0  0  0  0
    6.3509    3.7496    0.0000 H   0  0  0  0  0  0  0  0  0  0  0  0
    7.7998    1.2621    0.0000 H   0  0  0  0  0  0  0  0  0  0  0  0
    7.7998    2.9279    0.0000 H   0  0  0  0  0  0  0  0  0  0  0  0
    4.0611    4.4050    0.0000 H   0  0  0  0  0  0  0  0  0  0  0  0
    5.1350    4.4050    0.0000 H   0  0  0  0  0  0  0  0  0  0  0  0
  1  8  1  0  0  0  0
  1 15  1  0  0  0  0
  2 15  2  0  0  0  0
  3  5  1  0  0  0  0
  3  6  1  0  0  0  0
  3  7  1  0  0  0  0
  4 14  1  0  0  0  0
  4 42  1  0  0  0  0
  4 43  1  0  0  0  0
  5  8  1  0  0  0  0
  5 22  1  0  0  0  0
  5 23  1  0  0  0  0
  6 12  1  0  0  0  0
  6 24  1  0  0  0  0
  6 25  1  0  0  0  0
  7 13  1  0  0  0  0
  7 26  1  0  0  0  0
  7 27  1  0  0  0  0
  8 28  1  0  0  0  0
  8 29  1  0  0  0  0
  9 10  1  0  0  0  0
  9 11  1  0  0  0  0
  9 17  2  0  0  0  0
 10 15  1  0  0  0  0
 10 16  2  0  0  0  0
 11 14  1  0  0  0  0
 11 19  2  0  0  0  0
 12 32  1  0  0  0  0
 12 33  1  0  0  0  0
 12 34  1  0  0  0  0
 13 30  1  0  0  0  0
 13 31  1  0  0  0  0
 13 35  1  0  0  0  0
 14 18  2  0  0  0  0
 16 18  1  0  0  0  0
 16 36  1  0  0  0  0
 17 20  1  0  0  0  0
 17 37  1  0  0  0  0
 18 38  1  0  0  0  0
 19 21  1  0  0  0  0
 19 39  1  0  0  0  0
 20 21  2  0  0  0  0
 20 40  1  0  0  0  0
 21 41  1  0  0  0  0
M  END
> <PUBCHEM_COMPOUND_CID>
11073

> <PUBCHEM_COMPOUND_CANONICALIZED>
1

> <PUBCHEM_CACTVS_COMPLEXITY>
331

> <PUBCHEM_CACTVS_HBOND_ACCEPTOR>
4

> <PUBCHEM_CACTVS_HBOND_DONOR>
1

> <PUBCHEM_CACTVS_ROTATABLE_BOND>
7

> <PUBCHEM_CACTVS_SUBSKEYS>
AAADceB7MAAAAAAAAAAAAAAAAAAAAAAAAAAwYAAAAAAAAADBUAAAHgAQAAAADAjhmAYyyMNABACIAiTSSACCAAAkAgAIiAEIbMgKJjKAtZmDMQBk0AGY6YeY2eGeiAACQAASAAAQAASAACQAAAAAAAAAAA==

> <PUBCHEM_IUPAC_OPENEYE_NAME>
2-(diethylamino)ethyl 4-aminonaphthalene-1-carboxylate

> <PUBCHEM_IUPAC_CAS_NAME>
4-amino-1-naphthalenecarboxylic acid 2-(diethylamino)ethyl ester

> <PUBCHEM_IUPAC_NAME>
2-(diethylamino)ethyl 4-aminonaphthalene-1-carboxylate

> <PUBCHEM_IUPAC_SYSTEMATIC_NAME>
2-(diethylamino)ethyl 4-azanylnaphthalene-1-carboxylate

> <PUBCHEM_IUPAC_TRADITIONAL_NAME>
4-aminonaphthalene-1-carboxylic acid 2-(diethylamino)ethyl ester

> <PUBCHEM_IUPAC_INCHI>
InChI=1S/C17H22N2O2/c1-3-19(4-2)11-12-21-17(20)15-9-10-16(18)14-8-6-5-7-13(14)15/h5-10H,3-4,11-12,18H2,1-2H3

> <PUBCHEM_IUPAC_INCHIKEY>
ZSYWYFNJKDJHKS-UHFFFAOYSA-N

> <PUBCHEM_XLOGP3_AA>
3.1

> <PUBCHEM_EXACT_MASS>
286.168128

> <PUBCHEM_MOLECULAR_FORMULA>
C17H22N2O2

> <PUBCHEM_MOLECULAR_WEIGHT>
286.36878

> <PUBCHEM_OPENEYE_CAN_SMILES>
CCN(CC)CCOC(=O)C1=CC=C(C2=CC=CC=C21)N

> <PUBCHEM_OPENEYE_ISO_SMILES>
CCN(CC)CCOC(=O)C1=CC=C(C2=CC=CC=C21)N

> <PUBCHEM_CACTVS_TPSA>
55.6

> <PUBCHEM_MONOISOTOPIC_WEIGHT>
286.168128

> <PUBCHEM_TOTAL_CHARGE>
0

> <PUBCHEM_HEAVY_ATOM_COUNT>
21

> <PUBCHEM_ATOM_DEF_STEREO_COUNT>
0

> <PUBCHEM_ATOM_UDEF_STEREO_COUNT>
0

> <PUBCHEM_BOND_DEF_STEREO_COUNT>
0

> <PUBCHEM_BOND_UDEF_STEREO_COUNT>
0

> <PUBCHEM_ISOTOPIC_ATOM_COUNT>
0

> <PUBCHEM_COMPONENT_COUNT>
1

> <PUBCHEM_CACTVS_TAUTO_COUNT>
3

> <PUBCHEM_COORDINATE_TYPE>
1
5
255

> <PUBCHEM_BONDANNOTATIONS>
10  16  8
11  14  8
11  19  8
14  18  8
16  18  8
17  20  8
19  21  8
20  21  8
9  10  8
9  11  8
9  17  8

$$$$

