3933
  -OEChem-06251223462D

 34 35  0     1  0  0  0  0  0999 V2000
    2.8660    0.5950    0.0000 I   0  0  0  0  0  0  0  0  0  0  0  0
    6.3301    0.5950    0.0000 I   0  0  0  0  0  0  0  0  0  0  0  0
    8.0622    1.5950    0.0000 I   0  0  0  0  0  0  0  0  0  0  0  0
    4.5981    1.5950    0.0000 O   0  0  0  0  0  0  0  0  0  0  0  0
    2.0000   -2.9050    0.0000 O   0  5  0  0  0  0  0  0  0  0  0  0
    2.8660   -1.4050    0.0000 O   0  0  0  0  0  0  0  0  0  0  0  0
    8.0622    3.5950    0.0000 O   0  0  0  0  0  0  0  0  0  0  0  0
    3.7320   -3.9050    0.0000 N   0  0  0  0  0  0  0  0  0  0  0  0
    4.5981   -2.4050    0.0000 C   0  0  0  0  0  0  0  0  0  0  0  0
    4.5981   -1.4050    0.0000 C   0  0  0  0  0  0  0  0  0  0  0  0
    3.7320   -2.9050    0.0000 C   0  0  3  0  0  0  0  0  0  0  0  0
    5.4641   -0.9050    0.0000 C   0  0  0  0  0  0  0  0  0  0  0  0
    3.7320   -0.9050    0.0000 C   0  0  0  0  0  0  0  0  0  0  0  0
    4.5981    0.5950    0.0000 C   0  0  0  0  0  0  0  0  0  0  0  0
    3.7320    0.0950    0.0000 C   0  0  0  0  0  0  0  0  0  0  0  0
    5.4641    0.0950    0.0000 C   0  0  0  0  0  0  0  0  0  0  0  0
    2.8660   -2.4050    0.0000 C   0  0  0  0  0  0  0  0  0  0  0  0
    5.4641    2.0950    0.0000 C   0  0  0  0  0  0  0  0  0  0  0  0
    6.3301    1.5950    0.0000 C   0  0  0  0  0  0  0  0  0  0  0  0
    5.4641    3.0950    0.0000 C   0  0  0  0  0  0  0  0  0  0  0  0
    7.1962    2.0950    0.0000 C   0  0  0  0  0  0  0  0  0  0  0  0
    6.3301    3.5950    0.0000 C   0  0  0  0  0  0  0  0  0  0  0  0
    7.1962    3.0950    0.0000 C   0  0  0  0  0  0  0  0  0  0  0  0
    4.8101   -2.9876    0.0000 H   0  0  0  0  0  0  0  0  0  0  0  0
    5.2087   -2.2973    0.0000 H   0  0  0  0  0  0  0  0  0  0  0  0
    4.2690   -3.2150    0.0000 H   0  0  0  0  0  0  0  0  0  0  0  0
    6.0010   -1.2150    0.0000 H   0  0  0  0  0  0  0  0  0  0  0  0
    3.1951   -1.2150    0.0000 H   0  0  0  0  0  0  0  0  0  0  0  0
    3.1951   -4.2150    0.0000 H   0  0  0  0  0  0  0  0  0  0  0  0
    4.2690   -4.2150    0.0000 H   0  0  0  0  0  0  0  0  0  0  0  0
    6.3301    0.9750    0.0000 H   0  0  0  0  0  0  0  0  0  0  0  0
    4.9272    3.4050    0.0000 H   0  0  0  0  0  0  0  0  0  0  0  0
    6.3301    4.2150    0.0000 H   0  0  0  0  0  0  0  0  0  0  0  0
    8.0622    4.2150    0.0000 H   0  0  0  0  0  0  0  0  0  0  0  0
  1 15  1  0  0  0  0
  2 16  1  0  0  0  0
  3 21  1  0  0  0  0
  4 14  1  0  0  0  0
  4 18  1  0  0  0  0
  5 17  1  0  0  0  0
  6 17  2  0  0  0  0
  7 23  1  0  0  0  0
  7 34  1  0  0  0  0
  8 11  1  0  0  0  0
  8 29  1  0  0  0  0
  8 30  1  0  0  0  0
  9 10  1  0  0  0  0
  9 11  1  0  0  0  0
  9 24  1  0  0  0  0
  9 25  1  0  0  0  0
 10 12  2  0  0  0  0
 10 13  1  0  0  0  0
 11 17  1  0  0  0  0
 11 26  1  0  0  0  0
 12 16  1  0  0  0  0
 12 27  1  0  0  0  0
 13 15  2  0  0  0  0
 13 28  1  0  0  0  0
 14 15  1  0  0  0  0
 14 16  2  0  0  0  0
 18 19  2  0  0  0  0
 18 20  1  0  0  0  0
 19 21  1  0  0  0  0
 19 31  1  0  0  0  0
 20 22  2  0  0  0  0
 20 32  1  0  0  0  0
 21 23  2  0  0  0  0
 22 23  1  0  0  0  0
 22 33  1  0  0  0  0
M  CHG  1   5  -1
M  END
> <PUBCHEM_COMPOUND_CID>
3933

> <PUBCHEM_COMPOUND_CANONICALIZED>
1

> <PUBCHEM_CACTVS_COMPLEXITY>
397

> <PUBCHEM_CACTVS_HBOND_ACCEPTOR>
5

> <PUBCHEM_CACTVS_HBOND_DONOR>
2

> <PUBCHEM_CACTVS_ROTATABLE_BOND>
4

> <PUBCHEM_CACTVS_SUBSKEYS>
AAADccByOAAAAwAAAAAAAAAAAAAAAAAAAAAwYAAAAAAAAAABQAAAHgAwCAAADCzDmAQwDoBABgCIAiDSCAACCAAgIAAIiIGGCIgOJjKGsRuCeCCk0BEIuAfYyKCOIQAAAAAAAABCAAAAAAAAAAAAAAAAAA==

> <PUBCHEM_IUPAC_OPENEYE_NAME>
2-amino-3-[4-(4-hydroxy-3-iodo-phenoxy)-3,5-diiodo-phenyl]propanoate

> <PUBCHEM_IUPAC_CAS_NAME>
2-amino-3-[4-(4-hydroxy-3-iodophenoxy)-3,5-diiodophenyl]propanoate

> <PUBCHEM_IUPAC_NAME>
2-amino-3-[4-(4-hydroxy-3-iodophenoxy)-3,5-diiodophenyl]propanoate

> <PUBCHEM_IUPAC_SYSTEMATIC_NAME>
2-azanyl-3-[3,5-bis(iodanyl)-4-(3-iodanyl-4-oxidanyl-phenoxy)phenyl]propanoate

> <PUBCHEM_IUPAC_TRADITIONAL_NAME>
2-amino-3-[4-(4-hydroxy-3-iodo-phenoxy)-3,5-diiodo-phenyl]propionate

> <PUBCHEM_IUPAC_INCHI>
InChI=1S/C15H12I3NO4/c16-9-6-8(1-2-13(9)20)23-14-10(17)3-7(4-11(14)18)5-12(19)15(21)22/h1-4,6,12,20H,5,19H2,(H,21,22)/p-1

> <PUBCHEM_IUPAC_INCHIKEY>
AUYYCJSJGJYCDS-UHFFFAOYSA-M

> <PUBCHEM_XLOGP3_AA>
2.4

> <PUBCHEM_EXACT_MASS>
649.782227

> <PUBCHEM_MOLECULAR_FORMULA>
C15H11I3NO4-

> <PUBCHEM_MOLECULAR_WEIGHT>
649.96555

> <PUBCHEM_OPENEYE_CAN_SMILES>
C1=CC(=C(C=C1OC2=C(C=C(C=C2I)CC(C(=O)[O-])N)I)I)O

> <PUBCHEM_OPENEYE_ISO_SMILES>
C1=CC(=C(C=C1OC2=C(C=C(C=C2I)CC(C(=O)[O-])N)I)I)O

> <PUBCHEM_CACTVS_TPSA>
95.6

> <PUBCHEM_MONOISOTOPIC_WEIGHT>
649.782227

> <PUBCHEM_TOTAL_CHARGE>
-1

> <PUBCHEM_HEAVY_ATOM_COUNT>
23

> <PUBCHEM_ATOM_DEF_STEREO_COUNT>
0

> <PUBCHEM_ATOM_UDEF_STEREO_COUNT>
1

> <PUBCHEM_BOND_DEF_STEREO_COUNT>
0

> <PUBCHEM_BOND_UDEF_STEREO_COUNT>
0

> <PUBCHEM_ISOTOPIC_ATOM_COUNT>
0

> <PUBCHEM_COMPONENT_COUNT>
1

> <PUBCHEM_CACTVS_TAUTO_COUNT>
3

> <PUBCHEM_COORDINATE_TYPE>
1
5
255

> <PUBCHEM_BONDANNOTATIONS>
10  12  8
10  13  8
12  16  8
13  15  8
14  15  8
14  16  8
18  19  8
18  20  8
19  21  8
20  22  8
21  23  8
22  23  8
11  8  3

$$$$

