17395567
  -OEChem-06241222513D

 40 42  0     1  0  0  0  0  0999 V2000
    2.4884   -2.4880    1.8832 O   0  0  0  0  0  0  0  0  0  0  0  0
   -0.0480    0.5212    0.0608 O   0  0  0  0  0  0  0  0  0  0  0  0
    3.1982    1.2949    0.8421 O   0  0  0  0  0  0  0  0  0  0  0  0
    2.4709   -1.3608   -0.1791 N   0  0  0  0  0  0  0  0  0  0  0  0
   -1.9434   -0.7802   -0.4394 N   0  0  0  0  0  0  0  0  0  0  0  0
    0.2368   -1.6839   -0.7735 C   0  0  1  0  0  0  0  0  0  0  0  0
    1.5825   -1.2309   -1.3108 C   0  0  0  0  0  0  0  0  0  0  0  0
    0.5666   -2.5868    0.4126 C   0  0  0  0  0  0  0  0  0  0  0  0
    1.9500   -2.1522    0.8383 C   0  0  0  0  0  0  0  0  0  0  0  0
    3.8094   -0.8111   -0.2063 C   0  0  0  0  0  0  0  0  0  0  0  0
   -0.5852   -0.5090   -0.3328 C   0  0  0  0  0  0  0  0  0  0  0  0
    3.8003    0.6902   -0.2152 C   0  0  0  0  0  0  0  0  0  0  0  0
   -3.0210    0.0792   -0.1187 C   0  0  0  0  0  0  0  0  0  0  0  0
    4.2874    1.6285   -1.0953 C   0  0  0  0  0  0  0  0  0  0  0  0
   -4.3420   -0.3388   -0.2796 C   0  0  0  0  0  0  0  0  0  0  0  0
   -2.7484    1.3593    0.3639 C   0  0  0  0  0  0  0  0  0  0  0  0
    3.9637    2.8908   -0.5432 C   0  0  0  0  0  0  0  0  0  0  0  0
    3.3020    2.6340    0.6349 C   0  0  0  0  0  0  0  0  0  0  0  0
   -5.3903    0.5232    0.0420 C   0  0  0  0  0  0  0  0  0  0  0  0
   -4.6637   -1.7043   -0.7946 C   0  0  0  0  0  0  0  0  0  0  0  0
   -3.7968    2.2213    0.6858 C   0  0  0  0  0  0  0  0  0  0  0  0
   -5.1176    1.8033    0.5248 C   0  0  0  0  0  0  0  0  0  0  0  0
   -0.3088   -2.2313   -1.5514 H   0  0  0  0  0  0  0  0  0  0  0  0
    1.5884   -0.2100   -1.7037 H   0  0  0  0  0  0  0  0  0  0  0  0
    1.9437   -1.9124   -2.0893 H   0  0  0  0  0  0  0  0  0  0  0  0
    0.6211   -3.6358    0.1033 H   0  0  0  0  0  0  0  0  0  0  0  0
   -0.1332   -2.4829    1.2466 H   0  0  0  0  0  0  0  0  0  0  0  0
    4.3158   -1.1979   -1.0973 H   0  0  0  0  0  0  0  0  0  0  0  0
    4.3640   -1.1594    0.6719 H   0  0  0  0  0  0  0  0  0  0  0  0
   -2.2035   -1.7021   -0.7786 H   0  0  0  0  0  0  0  0  0  0  0  0
    4.8099    1.4298   -2.0200 H   0  0  0  0  0  0  0  0  0  0  0  0
   -1.7568    1.7597    0.5168 H   0  0  0  0  0  0  0  0  0  0  0  0
    4.1846    3.8658   -0.9529 H   0  0  0  0  0  0  0  0  0  0  0  0
    2.8644    3.2601    1.3987 H   0  0  0  0  0  0  0  0  0  0  0  0
   -6.4255    0.2143   -0.0771 H   0  0  0  0  0  0  0  0  0  0  0  0
   -5.7449   -1.8685   -0.8616 H   0  0  0  0  0  0  0  0  0  0  0  0
   -4.2620   -2.4726   -0.1256 H   0  0  0  0  0  0  0  0  0  0  0  0
   -4.2539   -1.8431   -1.8006 H   0  0  0  0  0  0  0  0  0  0  0  0
   -3.5861    3.2183    1.0617 H   0  0  0  0  0  0  0  0  0  0  0  0
   -5.9338    2.4746    0.7753 H   0  0  0  0  0  0  0  0  0  0  0  0
  1  9  2  0  0  0  0
  2 11  2  0  0  0  0
  3 12  1  0  0  0  0
  3 18  1  0  0  0  0
  4  7  1  0  0  0  0
  4  9  1  0  0  0  0
  4 10  1  0  0  0  0
  5 11  1  0  0  0  0
  5 13  1  0  0  0  0
  5 30  1  0  0  0  0
  6  7  1  0  0  0  0
  6  8  1  0  0  0  0
  6 11  1  0  0  0  0
  6 23  1  0  0  0  0
  7 24  1  0  0  0  0
  7 25  1  0  0  0  0
  8  9  1  0  0  0  0
  8 26  1  0  0  0  0
  8 27  1  0  0  0  0
 10 12  1  0  0  0  0
 10 28  1  0  0  0  0
 10 29  1  0  0  0  0
 12 14  2  0  0  0  0
 13 15  1  0  0  0  0
 13 16  2  0  0  0  0
 14 17  1  0  0  0  0
 14 31  1  0  0  0  0
 15 19  2  0  0  0  0
 15 20  1  0  0  0  0
 16 21  1  0  0  0  0
 16 32  1  0  0  0  0
 17 18  2  0  0  0  0
 17 33  1  0  0  0  0
 18 34  1  0  0  0  0
 19 22  1  0  0  0  0
 19 35  1  0  0  0  0
 20 36  1  0  0  0  0
 20 37  1  0  0  0  0
 20 38  1  0  0  0  0
 21 22  2  0  0  0  0
 21 39  1  0  0  0  0
 22 40  1  0  0  0  0
M  END
> <PUBCHEM_COMPOUND_CID>
17395567

> <PUBCHEM_CONFORMER_RMSD>
0.8

> <PUBCHEM_CONFORMER_DIVERSEORDER>
1
40
74
211
307
64
249
24
68
239
286
170
16
135
236
101
142
257
83
184
30
258
93
87
323
256
250
90
77
168
291
204
214
67
4
156
240
197
225
304
259
235
330
10
278
56
303
189
51
97
17
283
318
261
171
297
320
95
9
322
272
293
255
116
180
227
88
199
200
47
91
228
160
114
58
96
325
57
140
326
49
157
217
124
299
231
106
242
243
20
63
247
220
245
308
230
43
15
276
268
262
107
292
314
112
153
60
5
198
280
79
75
44
309
147
143
298
22
284
234
178
34
274
264
12
52
282
19
253
163
176
194
21
251
328
108
174
263
154
115
275
316
130
319
244
329
266
54
122
185
195
175
201
71
179
167
296
55
132
181
327
169
248
300
141
306
218
33
186
281
37
7
81
86
301
138
134
94
2
192
190
210
145
8
109
287
85
13
125
84
66
39
324
70
203
159
187
42
35
196
31
61
161
246
152
254
285
119
233
41
144
146
123
92
260
82
99
14
27
100
65
182
78
148
238
126
26
270
164
209
216
53
18
80
25
98
131
273
315
29
202
241
165
111
137
193
28
38
219
265
32
271
6
267
69
317
23
103
105
62
313
226
113
150
73
191
102
149
76
294
212
120
104
155
72
290
127
188
151
305
222
312
321
279
3
252
11
118
128
310
183
48
205
173
166
136
207
229
117
45
288
224
311
129
221
89
277
269
50
232
59
177
213
133
46
223
139
172
36
289
158
215
208
295
206
302
110
237
121
162

> <PUBCHEM_MMFF94_PARTIAL_CHARGES>
30
1 -0.57
10 0.48
11 0.57
12 -0.04
13 0.12
14 -0.15
15 -0.14
16 -0.15
17 -0.15
18 -0.01
19 -0.15
2 -0.57
20 0.14
21 -0.15
22 -0.15
3 -0.28
30 0.37
31 0.15
32 0.15
33 0.15
34 0.15
35 0.15
39 0.15
4 -0.66
40 0.15
5 -0.55
6 0.06
7 0.3
8 0.06
9 0.57

> <PUBCHEM_EFFECTIVE_ROTOR_COUNT>
5.8

> <PUBCHEM_PHARMACOPHORE_FEATURES>
7
1 1 acceptor
1 2 acceptor
1 3 acceptor
1 5 donor
5 3 12 14 17 18 rings
5 4 6 7 8 9 rings
6 13 15 16 19 21 22 rings

> <PUBCHEM_HEAVY_ATOM_COUNT>
22

> <PUBCHEM_ATOM_DEF_STEREO_COUNT>
0

> <PUBCHEM_ATOM_UDEF_STEREO_COUNT>
1

> <PUBCHEM_BOND_DEF_STEREO_COUNT>
0

> <PUBCHEM_BOND_UDEF_STEREO_COUNT>
0

> <PUBCHEM_ISOTOPIC_ATOM_COUNT>
0

> <PUBCHEM_COMPONENT_COUNT>
1

> <PUBCHEM_CACTVS_TAUTO_COUNT>
4

> <PUBCHEM_CONFORMER_ID>
01096F6F00000001

> <PUBCHEM_MMFF94_ENERGY>
47.1717

> <PUBCHEM_FEATURE_SELFOVERLAP>
35.52

> <PUBCHEM_SHAPE_FINGERPRINT>
10366900 7 17846207908372893362
10906281 52 17894903084535551013
11595378 159 16343144748310630277
12107183 9 17761774374798568089
12403259 118 18335150829197524747
13533116 47 17845936367956459523
13583140 156 18057871636414378081
13878862 14 18056500545414944365
14251764 75 18266165141799493608
14528608 73 18335139769778102533
146900 427 18336254691911995641
14739800 52 18189917343549462498
14787075 74 18264773155988769071
14848178 96 18411982442456927660
14849402 71 18272087206574364544
14955137 171 18268436918133631850
15142526 21 18199749150586575616
15848702 105 18260828151112201018
17868525 174 17697328665041493304
18681886 176 18114467850708746842
20567600 9 18411127065634458692
21503847 285 18336823195163243190
21709351 56 18336551624017062182
23559900 14 17678455487969142359
245318 6 17700115617765118908
2637199 183 18408878521616655332
268830 7 18342182214995181535
2838139 119 18115311047425879884
3472631 163 18262233456375639517
34797466 226 17458334222408702069
394222 165 18413111654115806954
474 4 18201433645118042116
5104073 3 18342452686460917747
5312544 6 18413108333837002632
543358 83 18263075672827326904
5895379 119 17387965623943512416
6034566 193 17413852250877748564
633830 44 18409450284347382166
7288768 16 17913215265374516568
7808743 9 18123749747592796092
960060 61 7348888905770178888
9999458 23 18202281407939259678

> <PUBCHEM_SHAPE_MULTIPOLES>
425.18
11.58
3.31
1.08
8.7
0.49
-0.14
6.62
0.5
-2.41
-0.65
-0.69
-0.38
-1.61

> <PUBCHEM_SHAPE_SELFOVERLAP>
915.68

> <PUBCHEM_SHAPE_VOLUME>
236.3

> <PUBCHEM_COORDINATE_TYPE>
2
5
10

$$$$

