3583
  -OEChem-06251223313D

 84 85  0     1  0  0  0  0  0999 V2000
   -0.7865   -1.9526   -1.1866 O   0  0  0  0  0  0  0  0  0  0  0  0
    1.9746   -0.3594    1.1058 O   0  0  0  0  0  0  0  0  0  0  0  0
    7.0102    2.7259    0.6221 O   0  0  0  0  0  0  0  0  0  0  0  0
    6.2495    1.3586    2.2683 O   0  0  0  0  0  0  0  0  0  0  0  0
   -0.5356   -0.1708    0.2697 N   0  0  0  0  0  0  0  0  0  0  0  0
   -1.5197   -3.1511    1.4060 N   0  0  0  0  0  0  0  0  0  0  0  0
    2.7690   -0.2966   -1.0646 N   0  0  0  0  0  0  0  0  0  0  0  0
   -4.8086    0.8648   -1.6373 N   0  0  0  0  0  0  0  0  0  0  0  0
   -3.5411   -2.1078    0.2140 C   0  0  0  0  0  0  0  0  0  0  0  0
   -2.1105   -1.9288    0.8525 C   0  0  2  0  0  0  0  0  0  0  0  0
    0.3638    2.0788   -0.3466 C   0  0  0  0  0  0  0  0  0  0  0  0
    0.4541    0.5306   -0.5219 C   0  0  1  0  0  0  0  0  0  0  0  0
   -4.0613   -0.7389   -0.2970 C   0  0  0  0  0  0  0  0  0  0  0  0
   -1.0804   -1.3757   -0.1404 C   0  0  0  0  0  0  0  0  0  0  0  0
   -3.5212   -3.1888   -0.9012 C   0  0  0  0  0  0  0  0  0  0  0  0
   -4.5277   -2.6550    1.2882 C   0  0  0  0  0  0  0  0  0  0  0  0
   -4.2772    0.4299    0.4854 C   0  0  0  0  0  0  0  0  0  0  0  0
    1.7950   -0.0768   -0.0851 C   0  0  0  0  0  0  0  0  0  0  0  0
    1.3221    2.7993   -1.3145 C   0  0  0  0  0  0  0  0  0  0  0  0
    0.6993    2.5353    1.0880 C   0  0  0  0  0  0  0  0  0  0  0  0
   -1.0713    2.5473   -0.6750 C   0  0  0  0  0  0  0  0  0  0  0  0
   -4.3968   -0.4403   -1.5975 C   0  0  0  0  0  0  0  0  0  0  0  0
    4.0726   -0.8758   -0.7595 C   0  0  2  0  0  0  0  0  0  0  0  0
   -4.7460    1.4211   -0.3795 C   0  0  0  0  0  0  0  0  0  0  0  0
    3.9183   -2.3257   -0.2353 C   0  0  0  0  0  0  0  0  0  0  0  0
   -4.1185    0.7406    1.8505 C   0  0  0  0  0  0  0  0  0  0  0  0
   -0.5514   -2.8284    2.4406 C   0  0  0  0  0  0  0  0  0  0  0  0
    2.5587    0.0364   -2.4704 C   0  0  0  0  0  0  0  0  0  0  0  0
   -5.0652    2.7127    0.0543 C   0  0  0  0  0  0  0  0  0  0  0  0
    4.7774    0.0612    0.1927 C   0  0  0  0  0  0  0  0  0  0  0  0
   -5.2453    1.5461   -2.8371 C   0  0  0  0  0  0  0  0  0  0  0  0
    5.2755   -2.9426    0.1175 C   0  0  0  0  0  0  0  0  0  0  0  0
    3.1616   -3.2513   -1.1953 C   0  0  0  0  0  0  0  0  0  0  0  0
   -4.4338    2.0285    2.2987 C   0  0  0  0  0  0  0  0  0  0  0  0
   -4.8997    2.9979    1.4126 C   0  0  0  0  0  0  0  0  0  0  0  0
    5.8863    0.7859   -0.0517 C   0  0  0  0  0  0  0  0  0  0  0  0
    6.6302    0.8463   -1.3528 C   0  0  0  0  0  0  0  0  0  0  0  0
    6.3798    1.6191    1.0822 C   0  0  0  0  0  0  0  0  0  0  0  0
   -2.2211   -1.2156    1.6748 H   0  0  0  0  0  0  0  0  0  0  0  0
    0.2037    0.2707   -1.5490 H   0  0  0  0  0  0  0  0  0  0  0  0
   -4.5365   -3.3866   -1.2677 H   0  0  0  0  0  0  0  0  0  0  0  0
   -2.9318   -2.8863   -1.7712 H   0  0  0  0  0  0  0  0  0  0  0  0
   -3.1195   -4.1418   -0.5405 H   0  0  0  0  0  0  0  0  0  0  0  0
   -5.5628   -2.6042    0.9283 H   0  0  0  0  0  0  0  0  0  0  0  0
   -4.4800   -2.0882    2.2221 H   0  0  0  0  0  0  0  0  0  0  0  0
   -4.3268   -3.7030    1.5360 H   0  0  0  0  0  0  0  0  0  0  0  0
   -0.7758    0.1972    1.1846 H   0  0  0  0  0  0  0  0  0  0  0  0
    2.3668    2.5356   -1.1243 H   0  0  0  0  0  0  0  0  0  0  0  0
    1.0830    2.5752   -2.3588 H   0  0  0  0  0  0  0  0  0  0  0  0
    1.2456    3.8875   -1.1998 H   0  0  0  0  0  0  0  0  0  0  0  0
    1.7353    2.3005    1.3538 H   0  0  0  0  0  0  0  0  0  0  0  0
    0.0446    2.0703    1.8316 H   0  0  0  0  0  0  0  0  0  0  0  0
    0.5810    3.6206    1.1897 H   0  0  0  0  0  0  0  0  0  0  0  0
   -1.3856    2.2007   -1.6658 H   0  0  0  0  0  0  0  0  0  0  0  0
   -1.1427    3.6411   -0.6682 H   0  0  0  0  0  0  0  0  0  0  0  0
   -1.7897    2.1752    0.0603 H   0  0  0  0  0  0  0  0  0  0  0  0
   -2.2439   -3.7328    1.8225 H   0  0  0  0  0  0  0  0  0  0  0  0
   -4.3790   -1.0400   -2.4976 H   0  0  0  0  0  0  0  0  0  0  0  0
    4.6287   -0.9439   -1.7000 H   0  0  0  0  0  0  0  0  0  0  0  0
    3.3436   -2.3174    0.6992 H   0  0  0  0  0  0  0  0  0  0  0  0
   -3.7651    0.0135    2.5734 H   0  0  0  0  0  0  0  0  0  0  0  0
   -1.0022   -2.2667    3.2658 H   0  0  0  0  0  0  0  0  0  0  0  0
   -0.1540   -3.7589    2.8593 H   0  0  0  0  0  0  0  0  0  0  0  0
    0.3032   -2.2713    2.0482 H   0  0  0  0  0  0  0  0  0  0  0  0
    3.3297    0.7550   -2.7685 H   0  0  0  0  0  0  0  0  0  0  0  0
    1.5974    0.4559   -2.7386 H   0  0  0  0  0  0  0  0  0  0  0  0
    2.6896   -0.8767   -3.0606 H   0  0  0  0  0  0  0  0  0  0  0  0
   -5.4276    3.4721   -0.6304 H   0  0  0  0  0  0  0  0  0  0  0  0
    4.3522    0.1111    1.1937 H   0  0  0  0  0  0  0  0  0  0  0  0
   -5.1972    0.8610   -3.6874 H   0  0  0  0  0  0  0  0  0  0  0  0
   -4.5822    2.3976   -3.0100 H   0  0  0  0  0  0  0  0  0  0  0  0
   -6.2754    1.8798   -2.6887 H   0  0  0  0  0  0  0  0  0  0  0  0
    5.7781   -2.3839    0.9132 H   0  0  0  0  0  0  0  0  0  0  0  0
    5.1546   -3.9717    0.4733 H   0  0  0  0  0  0  0  0  0  0  0  0
    5.9366   -2.9644   -0.7556 H   0  0  0  0  0  0  0  0  0  0  0  0
    2.1376   -2.9033   -1.3624 H   0  0  0  0  0  0  0  0  0  0  0  0
    3.0971   -4.2663   -0.7884 H   0  0  0  0  0  0  0  0  0  0  0  0
    3.6667   -3.3078   -2.1653 H   0  0  0  0  0  0  0  0  0  0  0  0
   -4.3144    2.2739    3.3507 H   0  0  0  0  0  0  0  0  0  0  0  0
   -5.1384    3.9919    1.7824 H   0  0  0  0  0  0  0  0  0  0  0  0
    7.7110    0.8580   -1.1727 H   0  0  0  0  0  0  0  0  0  0  0  0
    6.4402   -0.0122   -2.0002 H   0  0  0  0  0  0  0  0  0  0  0  0
    6.3627    1.7552   -1.9013 H   0  0  0  0  0  0  0  0  0  0  0  0
    7.3450    3.2882    1.3529 H   0  0  0  0  0  0  0  0  0  0  0  0
  1 14  2  0  0  0  0
  2 18  2  0  0  0  0
  3 38  1  0  0  0  0
  3 84  1  0  0  0  0
  4 38  2  0  0  0  0
  5 12  1  0  0  0  0
  5 14  1  0  0  0  0
  5 47  1  0  0  0  0
  6 10  1  0  0  0  0
  6 27  1  0  0  0  0
  6 57  1  0  0  0  0
  7 18  1  0  0  0  0
  7 23  1  0  0  0  0
  7 28  1  0  0  0  0
  8 22  1  0  0  0  0
  8 24  1  0  0  0  0
  8 31  1  0  0  0  0
  9 10  1  0  0  0  0
  9 13  1  0  0  0  0
  9 15  1  0  0  0  0
  9 16  1  0  0  0  0
 10 14  1  0  0  0  0
 10 39  1  0  0  0  0
 11 12  1  0  0  0  0
 11 19  1  0  0  0  0
 11 20  1  0  0  0  0
 11 21  1  0  0  0  0
 12 18  1  0  0  0  0
 12 40  1  0  0  0  0
 13 17  1  0  0  0  0
 13 22  2  0  0  0  0
 15 41  1  0  0  0  0
 15 42  1  0  0  0  0
 15 43  1  0  0  0  0
 16 44  1  0  0  0  0
 16 45  1  0  0  0  0
 16 46  1  0  0  0  0
 17 24  1  0  0  0  0
 17 26  2  0  0  0  0
 19 48  1  0  0  0  0
 19 49  1  0  0  0  0
 19 50  1  0  0  0  0
 20 51  1  0  0  0  0
 20 52  1  0  0  0  0
 20 53  1  0  0  0  0
 21 54  1  0  0  0  0
 21 55  1  0  0  0  0
 21 56  1  0  0  0  0
 22 58  1  0  0  0  0
 23 25  1  0  0  0  0
 23 30  1  0  0  0  0
 23 59  1  0  0  0  0
 24 29  2  0  0  0  0
 25 32  1  0  0  0  0
 25 33  1  0  0  0  0
 25 60  1  0  0  0  0
 26 34  1  0  0  0  0
 26 61  1  0  0  0  0
 27 62  1  0  0  0  0
 27 63  1  0  0  0  0
 27 64  1  0  0  0  0
 28 65  1  0  0  0  0
 28 66  1  0  0  0  0
 28 67  1  0  0  0  0
 29 35  1  0  0  0  0
 29 68  1  0  0  0  0
 30 36  2  0  0  0  0
 30 69  1  0  0  0  0
 31 70  1  0  0  0  0
 31 71  1  0  0  0  0
 31 72  1  0  0  0  0
 32 73  1  0  0  0  0
 32 74  1  0  0  0  0
 32 75  1  0  0  0  0
 33 76  1  0  0  0  0
 33 77  1  0  0  0  0
 33 78  1  0  0  0  0
 34 35  2  0  0  0  0
 34 79  1  0  0  0  0
 35 80  1  0  0  0  0
 36 37  1  0  0  0  0
 36 38  1  0  0  0  0
 37 81  1  0  0  0  0
 37 82  1  0  0  0  0
 37 83  1  0  0  0  0
M  END
> <PUBCHEM_COMPOUND_CID>
3583

> <PUBCHEM_CONFORMER_RMSD>
1.2

> <PUBCHEM_CONFORMER_DIVERSEORDER>
1
126
97
229
132
313
4
213
309
208
73
211
149
293
272
114
95
143
184
167
227
158
175
233
119
239
301
159
255
259
78
161
89
322
50
138
286
232
195
314
271
188
221
135
127
218
241
312
170
249
284
237
189
2
19
305
269
77
84
254
111
252
40
55
267
122
81
151
210
125
15
206
217
123
45
57
173
270
93
234
176
268
311
315
33
289
86
145
324
319
156
140
273
98
180
205
150
37
94
71
179
131
11
87
166
250
39
66
174
142
62
8
321
247
14
68
308
265
204
168
266
288
109
192
53
101
60
20
23
58
199
187
282
56
83
281
299
108
316
59
283
295
203
141
264
130
104
253
220
228
215
245
256
197
181
27
31
274
190
124
214
82
117
99
34
172
292
262
146
110
61
116
209
134
106
226
196
88
102
304
198
276
318
139
307
302
107
238
251
323
92
21
223
231
310
64
294
236
216
120
300
186
155
278
193
225
169
177
162
72
224
297
317
54
17
178
80
201
222
275
160
51
244
246
291
185
148
70
260
171
79
258
207
74
16
91
36
96
112
230
243
67
48
65
128
38
277
257
46
163
24
10
147
298
242
12
261
137
194
248
153
113
115
219
3
279
296
133
35
29
75
157
287
85
182
136
200
320
152
121
306
42
63
118
212
129
285
49
32
7
30
191
9
52
164
144
25
235
290
202
44
303
280
43
154
47
105
69
100
263
26
22
28
6
165
90
18
240
103
41
5
76
13
183

> <PUBCHEM_MMFF94_PARTIAL_CHARGES>
37
1 -0.57
10 0.33
12 0.36
13 -0.18
14 0.57
18 0.57
2 -0.57
22 -0.3
23 0.44
24 -0.15
26 -0.15
27 0.27
28 0.3
29 -0.15
3 -0.65
30 -0.29
31 0.26
34 -0.15
35 -0.15
36 -0.12
37 0.14
38 0.71
4 -0.57
47 0.37
5 -0.73
57 0.36
58 0.15
6 -0.9
61 0.15
68 0.15
69 0.15
7 -0.66
79 0.15
8 0.05
80 0.15
84 0.5
9 0.18

> <PUBCHEM_EFFECTIVE_ROTOR_COUNT>
13

> <PUBCHEM_PHARMACOPHORE_FEATURES>
15
1 1 acceptor
1 2 acceptor
1 3 acceptor
1 37 hydrophobe
1 4 acceptor
1 5 donor
1 6 cation
1 6 donor
1 8 cation
3 25 32 33 hydrophobe
3 3 4 38 anion
3 9 15 16 hydrophobe
4 11 19 20 21 hydrophobe
5 8 13 17 22 24 rings
6 17 24 26 29 34 35 rings

> <PUBCHEM_HEAVY_ATOM_COUNT>
38

> <PUBCHEM_ATOM_DEF_STEREO_COUNT>
0

> <PUBCHEM_ATOM_UDEF_STEREO_COUNT>
3

> <PUBCHEM_BOND_DEF_STEREO_COUNT>
0

> <PUBCHEM_BOND_UDEF_STEREO_COUNT>
1

> <PUBCHEM_ISOTOPIC_ATOM_COUNT>
0

> <PUBCHEM_COMPONENT_COUNT>
1

> <PUBCHEM_CACTVS_TAUTO_COUNT>
2

> <PUBCHEM_CONFORMER_ID>
00000DFF00000001

> <PUBCHEM_MMFF94_ENERGY>
102.9911

> <PUBCHEM_FEATURE_SELFOVERLAP>
76.265

> <PUBCHEM_SHAPE_FINGERPRINT>
10675989 125 18127417975595732886
10906281 52 18200860804588031188
11007060 377 18411984676303950265
11135609 12 18270675364661430497
12107698 1 18336544898805534823
12128747 34 18187650150505170104
12422481 6 17846505807510617100
13073987 5 18409724062827262939
13811026 1 18412830200307873159
14118638 360 18412261714120995399
14790565 3 18049435147992471721
15021287 119 16343701006519764590
15361156 5 18269821134395139710
15484559 13 15027537656479904405
16112460 7 18336822108173014425
19311894 1 18341325686979565459
20511986 3 18411147934917486030
21033648 144 18411140264110683319
21033648 29 17703227433708750509
21814621 53 14548751594618226500
23559900 14 18411412947606155326
32027 91 18196935693816459342
4073 2 18408039598360476504
4169191 19 18339081472078625244
460360 51 18201145581793095173
50677037 204 18411419531211381624
5104073 3 18411979182930275770
6081469 158 12103556452157443425
7226269 152 18343301474439739196

> <PUBCHEM_SHAPE_MULTIPOLES>
738.62
16.17
4.33
2.16
16.7
1.45
0.07
-6.92
-1.03
-1.06
-0.91
-1.44
-0.39
1.07

> <PUBCHEM_SHAPE_SELFOVERLAP>
1520.938

> <PUBCHEM_SHAPE_VOLUME>
426.1

> <PUBCHEM_COORDINATE_TYPE>
2
5
10

$$$$

