582701
  -OEChem-06241222433D

 25 26  0     0  0  0  0  0  0999 V2000
    2.7120   -0.5290   -0.0002 O   0  0  0  0  0  0  0  0  0  0  0  0
    2.8365    1.7602    0.0009 O   0  0  0  0  0  0  0  0  0  0  0  0
    0.1063   -0.4797   -0.0001 N   0  0  0  0  0  0  0  0  0  0  0  0
   -1.3618    1.8791   -0.0004 N   0  0  0  0  0  0  0  0  0  0  0  0
   -1.2380   -0.5086   -0.0001 C   0  0  0  0  0  0  0  0  0  0  0  0
   -1.9814    0.6858    0.0000 C   0  0  0  0  0  0  0  0  0  0  0  0
    0.7070    0.7239   -0.0004 C   0  0  0  0  0  0  0  0  0  0  0  0
   -1.9133   -1.7269    0.0000 C   0  0  0  0  0  0  0  0  0  0  0  0
   -3.3727    0.6179    0.0001 C   0  0  0  0  0  0  0  0  0  0  0  0
   -0.0166    1.8866   -0.0005 C   0  0  0  0  0  0  0  0  0  0  0  0
   -3.3059   -1.7839    0.0002 C   0  0  0  0  0  0  0  0  0  0  0  0
   -4.0387   -0.6064    0.0004 C   0  0  0  0  0  0  0  0  0  0  0  0
    2.1573    0.7288    0.0003 C   0  0  0  0  0  0  0  0  0  0  0  0
    4.1424   -0.5972    0.0002 C   0  0  0  0  0  0  0  0  0  0  0  0
    4.5669   -2.0504   -0.0003 C   0  0  0  0  0  0  0  0  0  0  0  0
   -1.3506   -2.6584    0.0000 H   0  0  0  0  0  0  0  0  0  0  0  0
   -3.9602    1.5339    0.0001 H   0  0  0  0  0  0  0  0  0  0  0  0
    0.4410    2.8685   -0.0005 H   0  0  0  0  0  0  0  0  0  0  0  0
   -3.8124   -2.7442    0.0002 H   0  0  0  0  0  0  0  0  0  0  0  0
   -5.1240   -0.6369    0.0005 H   0  0  0  0  0  0  0  0  0  0  0  0
    4.5310   -0.0971   -0.8938 H   0  0  0  0  0  0  0  0  0  0  0  0
    4.5304   -0.0979    0.8949 H   0  0  0  0  0  0  0  0  0  0  0  0
    5.6568   -2.1395   -0.0001 H   0  0  0  0  0  0  0  0  0  0  0  0
    4.1693   -2.5681    0.8788 H   0  0  0  0  0  0  0  0  0  0  0  0
    4.1698   -2.5674   -0.8801 H   0  0  0  0  0  0  0  0  0  0  0  0
  1 13  1  0  0  0  0
  1 14  1  0  0  0  0
  2 13  2  0  0  0  0
  3  5  1  0  0  0  0
  3  7  2  0  0  0  0
  4  6  1  0  0  0  0
  4 10  2  0  0  0  0
  5  6  1  0  0  0  0
  5  8  2  0  0  0  0
  6  9  2  0  0  0  0
  7 10  1  0  0  0  0
  7 13  1  0  0  0  0
  8 11  1  0  0  0  0
  8 16  1  0  0  0  0
  9 12  1  0  0  0  0
  9 17  1  0  0  0  0
 10 18  1  0  0  0  0
 11 12  2  0  0  0  0
 11 19  1  0  0  0  0
 12 20  1  0  0  0  0
 14 15  1  0  0  0  0
 14 21  1  0  0  0  0
 14 22  1  0  0  0  0
 15 23  1  0  0  0  0
 15 24  1  0  0  0  0
 15 25  1  0  0  0  0
M  END
> <PUBCHEM_COMPOUND_CID>
582701

> <PUBCHEM_CONFORMER_RMSD>
0.6

> <PUBCHEM_CONFORMER_DIVERSEORDER>
1
7
8
2
5
6
3
4
9
10

> <PUBCHEM_MMFF94_PARTIAL_CHARGES>
19
1 -0.43
10 0.16
11 -0.15
12 -0.15
13 0.63
14 0.28
16 0.15
17 0.15
18 0.15
19 0.15
2 -0.57
20 0.15
3 -0.62
4 -0.62
5 0.31
6 0.31
7 0.4
8 -0.15
9 -0.15

> <PUBCHEM_EFFECTIVE_ROTOR_COUNT>
3

> <PUBCHEM_PHARMACOPHORE_FEATURES>
5
1 2 acceptor
1 3 acceptor
1 4 acceptor
6 3 4 5 6 7 10 rings
6 5 6 8 9 11 12 rings

> <PUBCHEM_HEAVY_ATOM_COUNT>
15

> <PUBCHEM_ATOM_DEF_STEREO_COUNT>
0

> <PUBCHEM_ATOM_UDEF_STEREO_COUNT>
0

> <PUBCHEM_BOND_DEF_STEREO_COUNT>
0

> <PUBCHEM_BOND_UDEF_STEREO_COUNT>
0

> <PUBCHEM_ISOTOPIC_ATOM_COUNT>
0

> <PUBCHEM_COMPONENT_COUNT>
1

> <PUBCHEM_CACTVS_TAUTO_COUNT>
1

> <PUBCHEM_CONFORMER_ID>
0008E42D00000001

> <PUBCHEM_MMFF94_ENERGY>
39.9134

> <PUBCHEM_FEATURE_SELFOVERLAP>
25.413

> <PUBCHEM_SHAPE_FINGERPRINT>
11458722 379 18343018938690794842
11543360 7 15482383158179633787
11769659 78 18409450249918681741
12032990 46 18412260610498302123
12555020 224 18339371837494713855
13288520 33 18337106864968488366
13296908 3 18411137991677376803
13690532 89 18411419535368302415
14325111 11 18410575046251291169
15196674 1 18410856529944277127
15442244 35 18409727361219513512
15536298 74 18408605825405385208
16945 1 18339079272996509129
17804303 29 18335698373103183732
18186145 218 17561372746549200147
19422 9 18411132511330931009
200 152 17967260792922134367
20281475 54 18337387149843586497
20645477 70 18411704248887946206
21267235 1 18411410709543260307
21501502 16 18336539447832549072
21501925 9 18409174290196969904
221490 88 18270392781319166306
23402539 116 18187373163979734237
23403322 49 18411138056139192806
23463225 33 18410291384914414590
23559900 14 18409173212276463528
2748010 2 18194971738436375741
3286 77 17313394395994987979
335352 9 18338516455991980053
5104073 3 18408602543654648561
559249 180 17913214436387910058
7364860 26 18336547097739184376
76465 3 18114473253629841095
8809292 202 18342735204402803587
9709674 26 18341611452153747210

> <PUBCHEM_SHAPE_MULTIPOLES>
286.99
7.99
2.17
0.59
5.48
0.04
0
4.37
0
0.43
0
-0.03
0.02
0

> <PUBCHEM_SHAPE_SELFOVERLAP>
618.789

> <PUBCHEM_SHAPE_VOLUME>
157.7

> <PUBCHEM_COORDINATE_TYPE>
2
5
10

$$$$

