17396039
  -OEChem-06241222542D

 56 59  0     1  0  0  0  0  0999 V2000
   12.3090   -0.0362    0.0000 O   0  0  0  0  0  0  0  0  0  0  0  0
   12.3090    2.0121    0.0000 O   0  0  0  0  0  0  0  0  0  0  0  0
    6.1808    1.4879    0.0000 O   0  0  0  0  0  0  0  0  0  0  0  0
    2.6691    0.3947    0.0000 O   0  0  0  0  0  0  0  0  0  0  0  0
    7.9128    0.4879    0.0000 N   0  0  3  0  0  0  0  0  0  0  0  0
    5.3147   -0.0121    0.0000 N   0  0  0  0  0  0  0  0  0  0  0  0
    8.7788   -0.0121    0.0000 C   0  0  3  0  0  0  0  0  0  0  0  0
    7.9128    1.4879    0.0000 C   0  0  0  0  0  0  0  0  0  0  0  0
    9.6448    0.4879    0.0000 C   0  0  0  0  0  0  0  0  0  0  0  0
    8.7788    1.9879    0.0000 C   0  0  0  0  0  0  0  0  0  0  0  0
    9.6448    1.4879    0.0000 C   0  0  0  0  0  0  0  0  0  0  0  0
    8.7788   -1.0121    0.0000 C   0  0  0  0  0  0  0  0  0  0  0  0
    7.0468   -0.0121    0.0000 C   0  0  0  0  0  0  0  0  0  0  0  0
   10.5388   -0.0467    0.0000 C   0  0  0  0  0  0  0  0  0  0  0  0
   10.5388    2.0226    0.0000 C   0  0  0  0  0  0  0  0  0  0  0  0
   11.4449    0.4671    0.0000 C   0  0  0  0  0  0  0  0  0  0  0  0
   11.4449    1.5087    0.0000 C   0  0  0  0  0  0  0  0  0  0  0  0
    7.9128   -1.5121    0.0000 C   0  0  0  0  0  0  0  0  0  0  0  0
    9.6448   -1.5121    0.0000 C   0  0  0  0  0  0  0  0  0  0  0  0
    6.1808    0.4879    0.0000 C   0  0  0  0  0  0  0  0  0  0  0  0
    7.9128   -2.5121    0.0000 C   0  0  0  0  0  0  0  0  0  0  0  0
    9.6448   -2.5121    0.0000 C   0  0  0  0  0  0  0  0  0  0  0  0
    8.7788   -3.0121    0.0000 C   0  0  0  0  0  0  0  0  0  0  0  0
    4.4487    0.4879    0.0000 C   0  0  0  0  0  0  0  0  0  0  0  0
   13.1769    0.4604    0.0000 C   0  0  0  0  0  0  0  0  0  0  0  0
   12.3051    3.0121    0.0000 C   0  0  0  0  0  0  0  0  0  0  0  0
    3.5827   -0.0121    0.0000 C   0  0  0  0  0  0  0  0  0  0  0  0
    3.4782   -1.0066    0.0000 C   0  0  0  0  0  0  0  0  0  0  0  0
    2.5000   -1.2145    0.0000 C   0  0  0  0  0  0  0  0  0  0  0  0
    2.0000   -0.3485    0.0000 C   0  0  0  0  0  0  0  0  0  0  0  0
    8.2419   -0.3221    0.0000 H   0  0  0  0  0  0  0  0  0  0  0  0
    7.7008    2.0705    0.0000 H   0  0  0  0  0  0  0  0  0  0  0  0
    7.3022    1.3803    0.0000 H   0  0  0  0  0  0  0  0  0  0  0  0
    9.1774    2.4629    0.0000 H   0  0  0  0  0  0  0  0  0  0  0  0
    8.3803    2.4629    0.0000 H   0  0  0  0  0  0  0  0  0  0  0  0
    6.6482   -0.4870    0.0000 H   0  0  0  0  0  0  0  0  0  0  0  0
    7.4453   -0.4870    0.0000 H   0  0  0  0  0  0  0  0  0  0  0  0
   10.5316   -0.6667    0.0000 H   0  0  0  0  0  0  0  0  0  0  0  0
   10.5316    2.6426    0.0000 H   0  0  0  0  0  0  0  0  0  0  0  0
    7.3759   -1.2021    0.0000 H   0  0  0  0  0  0  0  0  0  0  0  0
   10.1818   -1.2021    0.0000 H   0  0  0  0  0  0  0  0  0  0  0  0
    7.3759   -2.8221    0.0000 H   0  0  0  0  0  0  0  0  0  0  0  0
   10.1818   -2.8221    0.0000 H   0  0  0  0  0  0  0  0  0  0  0  0
    5.3147   -0.6321    0.0000 H   0  0  0  0  0  0  0  0  0  0  0  0
    8.7788   -3.6321    0.0000 H   0  0  0  0  0  0  0  0  0  0  0  0
    4.8472    0.9629    0.0000 H   0  0  0  0  0  0  0  0  0  0  0  0
    4.0502    0.9629    0.0000 H   0  0  0  0  0  0  0  0  0  0  0  0
   13.4848   -0.0777    0.0000 H   0  0  0  0  0  0  0  0  0  0  0  0
   13.7150    0.7684    0.0000 H   0  0  0  0  0  0  0  0  0  0  0  0
   12.8690    0.9986    0.0000 H   0  0  0  0  0  0  0  0  0  0  0  0
   12.9251    3.0145    0.0000 H   0  0  0  0  0  0  0  0  0  0  0  0
   12.3027    3.6321    0.0000 H   0  0  0  0  0  0  0  0  0  0  0  0
   11.6851    3.0097    0.0000 H   0  0  0  0  0  0  0  0  0  0  0  0
    3.9389   -1.4215    0.0000 H   0  0  0  0  0  0  0  0  0  0  0  0
    2.2478   -1.7809    0.0000 H   0  0  0  0  0  0  0  0  0  0  0  0
    1.3834   -0.2837    0.0000 H   0  0  0  0  0  0  0  0  0  0  0  0
  1 16  1  0  0  0  0
  1 25  1  0  0  0  0
  2 17  1  0  0  0  0
  2 26  1  0  0  0  0
  3 20  2  0  0  0  0
  4 27  1  0  0  0  0
  4 30  1  0  0  0  0
  5  7  1  0  0  0  0
  5  8  1  0  0  0  0
  5 13  1  0  0  0  0
  6 20  1  0  0  0  0
  6 24  1  0  0  0  0
  6 44  1  0  0  0  0
  7  9  1  0  0  0  0
  7 12  1  0  0  0  0
  7 31  1  0  0  0  0
  8 10  1  0  0  0  0
  8 32  1  0  0  0  0
  8 33  1  0  0  0  0
  9 11  1  0  0  0  0
  9 14  2  0  0  0  0
 10 11  1  0  0  0  0
 10 34  1  0  0  0  0
 10 35  1  0  0  0  0
 11 15  2  0  0  0  0
 12 18  2  0  0  0  0
 12 19  1  0  0  0  0
 13 20  1  0  0  0  0
 13 36  1  0  0  0  0
 13 37  1  0  0  0  0
 14 16  1  0  0  0  0
 14 38  1  0  0  0  0
 15 17  1  0  0  0  0
 15 39  1  0  0  0  0
 16 17  2  0  0  0  0
 18 21  1  0  0  0  0
 18 40  1  0  0  0  0
 19 22  2  0  0  0  0
 19 41  1  0  0  0  0
 21 23  2  0  0  0  0
 21 42  1  0  0  0  0
 22 23  1  0  0  0  0
 22 43  1  0  0  0  0
 23 45  1  0  0  0  0
 24 27  1  0  0  0  0
 24 46  1  0  0  0  0
 24 47  1  0  0  0  0
 25 48  1  0  0  0  0
 25 49  1  0  0  0  0
 25 50  1  0  0  0  0
 26 51  1  0  0  0  0
 26 52  1  0  0  0  0
 26 53  1  0  0  0  0
 27 28  2  0  0  0  0
 28 29  1  0  0  0  0
 28 54  1  0  0  0  0
 29 30  2  0  0  0  0
 29 55  1  0  0  0  0
 30 56  1  0  0  0  0
M  END
> <PUBCHEM_COMPOUND_CID>
17396039

> <PUBCHEM_COMPOUND_CANONICALIZED>
1

> <PUBCHEM_CACTVS_COMPLEXITY>
553

> <PUBCHEM_CACTVS_HBOND_ACCEPTOR>
5

> <PUBCHEM_CACTVS_HBOND_DONOR>
1

> <PUBCHEM_CACTVS_ROTATABLE_BOND>
7

> <PUBCHEM_CACTVS_SUBSKEYS>
AAADceB7OAAAAAAAAAAAAAAAAAAAASAAAAA8YIAAAAAAAACx0AAAHgAQAAAADCzhmAYyBoPABECIAqlSkACCCAAkIAAIiIGOjMgPZjKEtTuXOSrk1hGaqYe40fMOoAABAAAQQABAAAIAACCAAAAAAAAAAA==

> <PUBCHEM_IUPAC_OPENEYE_NAME>
2-(6,7-dimethoxy-1-phenyl-3,4-dihydro-1H-isoquinolin-2-yl)-N-(2-furylmethyl)acetamide

> <PUBCHEM_IUPAC_CAS_NAME>
2-(6,7-dimethoxy-1-phenyl-3,4-dihydro-1H-isoquinolin-2-yl)-N-(2-furanylmethyl)acetamide

> <PUBCHEM_IUPAC_NAME>
2-(6,7-dimethoxy-1-phenyl-3,4-dihydro-1H-isoquinolin-2-yl)-N-(furan-2-ylmethyl)acetamide

> <PUBCHEM_IUPAC_SYSTEMATIC_NAME>
2-(6,7-dimethoxy-1-phenyl-3,4-dihydro-1H-isoquinolin-2-yl)-N-(furan-2-ylmethyl)ethanamide

> <PUBCHEM_IUPAC_TRADITIONAL_NAME>
2-(6,7-dimethoxy-1-phenyl-3,4-dihydro-1H-isoquinolin-2-yl)-N-(2-furfuryl)acetamide

> <PUBCHEM_IUPAC_INCHI>
InChI=1S/C24H26N2O4/c1-28-21-13-18-10-11-26(16-23(27)25-15-19-9-6-12-30-19)24(17-7-4-3-5-8-17)20(18)14-22(21)29-2/h3-9,12-14,24H,10-11,15-16H2,1-2H3,(H,25,27)

> <PUBCHEM_IUPAC_INCHIKEY>
UHKLKIGVRNLOMV-UHFFFAOYSA-N

> <PUBCHEM_XLOGP3_AA>
3.4

> <PUBCHEM_EXACT_MASS>
406.189257

> <PUBCHEM_MOLECULAR_FORMULA>
C24H26N2O4

> <PUBCHEM_MOLECULAR_WEIGHT>
406.47424

> <PUBCHEM_OPENEYE_CAN_SMILES>
COC1=C(C=C2C(N(CCC2=C1)CC(=O)NCC3=CC=CO3)C4=CC=CC=C4)OC

> <PUBCHEM_OPENEYE_ISO_SMILES>
COC1=C(C=C2C(N(CCC2=C1)CC(=O)NCC3=CC=CO3)C4=CC=CC=C4)OC

> <PUBCHEM_CACTVS_TPSA>
63.9

> <PUBCHEM_MONOISOTOPIC_WEIGHT>
406.189257

> <PUBCHEM_TOTAL_CHARGE>
0

> <PUBCHEM_HEAVY_ATOM_COUNT>
30

> <PUBCHEM_ATOM_DEF_STEREO_COUNT>
0

> <PUBCHEM_ATOM_UDEF_STEREO_COUNT>
1

> <PUBCHEM_BOND_DEF_STEREO_COUNT>
0

> <PUBCHEM_BOND_UDEF_STEREO_COUNT>
0

> <PUBCHEM_ISOTOPIC_ATOM_COUNT>
0

> <PUBCHEM_COMPONENT_COUNT>
1

> <PUBCHEM_CACTVS_TAUTO_COUNT>
2

> <PUBCHEM_COORDINATE_TYPE>
1
5
255

> <PUBCHEM_BONDANNOTATIONS>
11  15  8
12  18  8
12  19  8
14  16  8
15  17  8
16  17  8
18  21  8
19  22  8
21  23  8
22  23  8
27  28  8
28  29  8
29  30  8
4  27  8
4  30  8
7  12  3
9  11  8
9  14  8

$$$$

