12024
  -OEChem-06261206243D

 12 12  0     0  0  0  0  0  0999 V2000
   -1.6741    0.7971    0.0003 S   0  0  0  0  0  0  0  0  0  0  0  0
    0.7787    0.0324   -0.0004 C   0  0  0  0  0  0  0  0  0  0  0  0
   -0.0061   -1.1569   -0.0003 C   0  0  0  0  0  0  0  0  0  0  0  0
    2.2602    0.0456    0.0005 C   0  0  0  0  0  0  0  0  0  0  0  0
   -0.0021    1.1673   -0.0003 C   0  0  0  0  0  0  0  0  0  0  0  0
   -1.3566   -0.8855    0.0002 C   0  0  0  0  0  0  0  0  0  0  0  0
    0.3940   -2.1629   -0.0006 H   0  0  0  0  0  0  0  0  0  0  0  0
    2.6630   -0.8409    0.5015 H   0  0  0  0  0  0  0  0  0  0  0  0
    2.6399    0.0603   -1.0263 H   0  0  0  0  0  0  0  0  0  0  0  0
    2.6492    0.9264    0.5225 H   0  0  0  0  0  0  0  0  0  0  0  0
    0.3241    2.1982   -0.0007 H   0  0  0  0  0  0  0  0  0  0  0  0
   -2.1721   -1.5950    0.0004 H   0  0  0  0  0  0  0  0  0  0  0  0
  1  5  1  0  0  0  0
  1  6  1  0  0  0  0
  2  3  1  0  0  0  0
  2  4  1  0  0  0  0
  2  5  2  0  0  0  0
  3  6  2  0  0  0  0
  3  7  1  0  0  0  0
  4  8  1  0  0  0  0
  4  9  1  0  0  0  0
  4 10  1  0  0  0  0
  5 11  1  0  0  0  0
  6 12  1  0  0  0  0
M  END
> <PUBCHEM_COMPOUND_CID>
12024

> <PUBCHEM_CONFORMER_RMSD>
0.4

> <PUBCHEM_CONFORMER_DIVERSEORDER>
1

> <PUBCHEM_MMFF94_PARTIAL_CHARGES>
9
1 -0.08
11 0.15
12 0.15
2 -0.18
3 -0.15
4 0.18
5 -0.11
6 -0.11
7 0.15

> <PUBCHEM_EFFECTIVE_ROTOR_COUNT>
0

> <PUBCHEM_PHARMACOPHORE_FEATURES>
1
5 1 2 3 5 6 rings

> <PUBCHEM_HEAVY_ATOM_COUNT>
6

> <PUBCHEM_ATOM_DEF_STEREO_COUNT>
0

> <PUBCHEM_ATOM_UDEF_STEREO_COUNT>
0

> <PUBCHEM_BOND_DEF_STEREO_COUNT>
0

> <PUBCHEM_BOND_UDEF_STEREO_COUNT>
0

> <PUBCHEM_ISOTOPIC_ATOM_COUNT>
0

> <PUBCHEM_COMPONENT_COUNT>
1

> <PUBCHEM_CACTVS_TAUTO_COUNT>
1

> <PUBCHEM_CONFORMER_ID>
00002EF800000001

> <PUBCHEM_MMFF94_ENERGY>
4.6841

> <PUBCHEM_FEATURE_SELFOVERLAP>
5.074

> <PUBCHEM_SHAPE_FINGERPRINT>
16714656 1 18411414020720023700
20096714 4 18339079392622421817
21040471 1 18266741457521457797
23552423 10 18272645770944495334
29004967 10 18340481162658141018
5943 1 13754358789581716003

> <PUBCHEM_SHAPE_MULTIPOLES>
127.33
2.39
1.31
0.63
0.81
0.06
0
-0.23
0
-0.35
0
-0.02
-0.01
0

> <PUBCHEM_SHAPE_SELFOVERLAP>
244.035

> <PUBCHEM_SHAPE_VOLUME>
80.6

> <PUBCHEM_COORDINATE_TYPE>
2
5
10

$$$$

