13906
  -OEChem-06241222403D

 30 30  0     0  0  0  0  0  0999 V2000
   -0.8705   -1.4894   -1.0304 O   0  0  0  0  0  0  0  0  0  0  0  0
   -2.2626    0.0533   -0.0099 N   0  0  0  0  0  0  0  0  0  0  0  0
    0.0276    0.5279   -0.2975 N   0  0  0  0  0  0  0  0  0  0  0  0
   -3.4694   -0.7542   -0.1354 C   0  0  0  0  0  0  0  0  0  0  0  0
   -2.4321    1.3523    0.6376 C   0  0  0  0  0  0  0  0  0  0  0  0
   -1.0070   -0.3921   -0.4849 C   0  0  0  0  0  0  0  0  0  0  0  0
   -3.6581   -1.6512    1.0762 C   0  0  0  0  0  0  0  0  0  0  0  0
   -2.7617    2.4332   -0.3780 C   0  0  0  0  0  0  0  0  0  0  0  0
    1.4028    0.2532   -0.0943 C   0  0  0  0  0  0  0  0  0  0  0  0
    2.2845    1.3070    0.0735 C   0  0  0  0  0  0  0  0  0  0  0  0
    1.8327   -1.0623   -0.0676 C   0  0  0  0  0  0  0  0  0  0  0  0
    3.6383    1.0369    0.2740 C   0  0  0  0  0  0  0  0  0  0  0  0
    3.1865   -1.3322    0.1329 C   0  0  0  0  0  0  0  0  0  0  0  0
    4.0891   -0.2825    0.3038 C   0  0  0  0  0  0  0  0  0  0  0  0
   -4.3374   -0.1019   -0.2783 H   0  0  0  0  0  0  0  0  0  0  0  0
   -3.3798   -1.3819   -1.0289 H   0  0  0  0  0  0  0  0  0  0  0  0
   -3.2453    1.2761    1.3691 H   0  0  0  0  0  0  0  0  0  0  0  0
   -1.5418    1.6237    1.2131 H   0  0  0  0  0  0  0  0  0  0  0  0
   -2.8018   -2.3211    1.2076 H   0  0  0  0  0  0  0  0  0  0  0  0
   -3.7638   -1.0625    1.9931 H   0  0  0  0  0  0  0  0  0  0  0  0
   -4.5570   -2.2643    0.9588 H   0  0  0  0  0  0  0  0  0  0  0  0
   -1.9763    2.5347   -1.1332 H   0  0  0  0  0  0  0  0  0  0  0  0
   -3.6958    2.2090   -0.9034 H   0  0  0  0  0  0  0  0  0  0  0  0
   -2.8796    3.3992    0.1228 H   0  0  0  0  0  0  0  0  0  0  0  0
   -0.2089    1.5142   -0.2664 H   0  0  0  0  0  0  0  0  0  0  0  0
    1.9435    2.3383    0.0523 H   0  0  0  0  0  0  0  0  0  0  0  0
    1.1767   -1.9173   -0.1668 H   0  0  0  0  0  0  0  0  0  0  0  0
    4.3412    1.8540    0.4074 H   0  0  0  0  0  0  0  0  0  0  0  0
    3.5378   -2.3596    0.1626 H   0  0  0  0  0  0  0  0  0  0  0  0
    5.1429   -0.4929    0.4616 H   0  0  0  0  0  0  0  0  0  0  0  0
  1  6  2  0  0  0  0
  2  4  1  0  0  0  0
  2  5  1  0  0  0  0
  2  6  1  0  0  0  0
  3  6  1  0  0  0  0
  3  9  1  0  0  0  0
  3 25  1  0  0  0  0
  4  7  1  0  0  0  0
  4 15  1  0  0  0  0
  4 16  1  0  0  0  0
  5  8  1  0  0  0  0
  5 17  1  0  0  0  0
  5 18  1  0  0  0  0
  7 19  1  0  0  0  0
  7 20  1  0  0  0  0
  7 21  1  0  0  0  0
  8 22  1  0  0  0  0
  8 23  1  0  0  0  0
  8 24  1  0  0  0  0
  9 10  2  0  0  0  0
  9 11  1  0  0  0  0
 10 12  1  0  0  0  0
 10 26  1  0  0  0  0
 11 13  2  0  0  0  0
 11 27  1  0  0  0  0
 12 14  2  0  0  0  0
 12 28  1  0  0  0  0
 13 14  1  0  0  0  0
 13 29  1  0  0  0  0
 14 30  1  0  0  0  0
M  END
> <PUBCHEM_COMPOUND_CID>
13906

> <PUBCHEM_CONFORMER_RMSD>
0.6

> <PUBCHEM_CONFORMER_DIVERSEORDER>
1
11
18
17
3
16
10
6
19
9
8
14
7
4
13
20
12
5
2
15

> <PUBCHEM_MMFF94_PARTIAL_CHARGES>
18
1 -0.57
10 -0.15
11 -0.15
12 -0.15
13 -0.15
14 -0.15
2 -0.66
25 0.37
26 0.15
27 0.15
28 0.15
29 0.15
3 -0.55
30 0.15
4 0.3
5 0.3
6 0.69
9 0.12

> <PUBCHEM_EFFECTIVE_ROTOR_COUNT>
5

> <PUBCHEM_PHARMACOPHORE_FEATURES>
3
1 1 acceptor
1 3 donor
6 9 10 11 12 13 14 rings

> <PUBCHEM_HEAVY_ATOM_COUNT>
14

> <PUBCHEM_ATOM_DEF_STEREO_COUNT>
0

> <PUBCHEM_ATOM_UDEF_STEREO_COUNT>
0

> <PUBCHEM_BOND_DEF_STEREO_COUNT>
0

> <PUBCHEM_BOND_UDEF_STEREO_COUNT>
0

> <PUBCHEM_ISOTOPIC_ATOM_COUNT>
0

> <PUBCHEM_COMPONENT_COUNT>
1

> <PUBCHEM_CACTVS_TAUTO_COUNT>
2

> <PUBCHEM_CONFORMER_ID>
0000365200000001

> <PUBCHEM_MMFF94_ENERGY>
34.4154

> <PUBCHEM_FEATURE_SELFOVERLAP>
15.223

> <PUBCHEM_SHAPE_FINGERPRINT>
10608611 8 18408890650251150616
10799339 124 18408606984824885666
10922523 26 18261392295003201108
12251169 10 18334861584751589134
12500047 106 18129103505525028093
12507560 40 18409166631795644280
12932764 1 17676496007802776648
13296908 3 18409448119899817478
13296909 8 18343021107923326237
13675066 3 18187652422753248562
14144814 61 18407761447566860616
14289901 80 18131063823003651264
14325111 11 18408605885281771620
15375462 478 18411979127000228909
15442244 35 18192714660007403594
17802600 8 18261119555789802577
18186145 218 18041272274788454740
19422 9 18201433696921133710
200 152 18261685791941656431
20279233 1 15123512493054142272
20281475 54 17988924522116832586
20510252 161 18260264157481785289
20559304 39 18339919303837760196
20645477 70 18335711567053378639
21065199 12 18410575093453499882
22485316 2 17418382388880816674
2306618 200 18040151842628324441
23402539 116 18411425012469677759
26918003 58 18130510734606533779
2748010 2 18115860965920588957
3248919 1 17275094029269697316
42 15 18412543206308580706
5104073 3 18410015468142480368
9709674 26 18409727391374143799

> <PUBCHEM_SHAPE_MULTIPOLES>
272.28
7.78
2.02
0.82
1.29
0.62
0.04
-0.65
1.51
-1.48
0.04
-0.4
-0.16
0.43

> <PUBCHEM_SHAPE_SELFOVERLAP>
546.461

> <PUBCHEM_SHAPE_VOLUME>
160.2

> <PUBCHEM_COORDINATE_TYPE>
2
5
10

$$$$

