854021
  -OEChem-06241222463D

 23 22  0     1  0  0  0  0  0999 V2000
   -0.8632   -2.1982   -0.5540 O   0  0  0  0  0  0  0  0  0  0  0  0
   -2.3824   -1.1736    0.7632 O   0  0  0  0  0  0  0  0  0  0  0  0
    2.3832    0.7058    1.1990 O   0  0  0  0  0  0  0  0  0  0  0  0
    0.9596   -0.3483   -0.3081 N   0  0  0  0  0  0  0  0  0  0  0  0
    3.2340   -0.4033   -0.6220 N   0  0  0  0  0  0  0  0  0  0  0  0
   -0.8056    1.3481   -0.1705 C   0  0  0  0  0  0  0  0  0  0  0  0
   -0.2900   -0.0155    0.3374 C   0  0  1  0  0  0  0  0  0  0  0  0
   -2.0040    1.8520    0.6384 C   0  0  0  0  0  0  0  0  0  0  0  0
   -1.1379    1.3486   -1.6659 C   0  0  0  0  0  0  0  0  0  0  0  0
   -1.2924   -1.1582    0.2025 C   0  0  0  0  0  0  0  0  0  0  0  0
    2.1987    0.0426    0.1799 C   0  0  0  0  0  0  0  0  0  0  0  0
    0.0004    2.0810   -0.0248 H   0  0  0  0  0  0  0  0  0  0  0  0
   -0.0767    0.0630    1.4117 H   0  0  0  0  0  0  0  0  0  0  0  0
   -2.2202    2.8959    0.3851 H   0  0  0  0  0  0  0  0  0  0  0  0
   -1.7992    1.8085    1.7130 H   0  0  0  0  0  0  0  0  0  0  0  0
   -2.9108    1.2755    0.4336 H   0  0  0  0  0  0  0  0  0  0  0  0
   -1.9463    0.6473   -1.8970 H   0  0  0  0  0  0  0  0  0  0  0  0
   -1.4585    2.3453   -1.9884 H   0  0  0  0  0  0  0  0  0  0  0  0
   -0.2663    1.0741   -2.2684 H   0  0  0  0  0  0  0  0  0  0  0  0
    0.9307   -0.8823   -1.1716 H   0  0  0  0  0  0  0  0  0  0  0  0
   -1.5269   -2.9192   -0.5960 H   0  0  0  0  0  0  0  0  0  0  0  0
    3.0623   -0.9493   -1.4596 H   0  0  0  0  0  0  0  0  0  0  0  0
    4.2008   -0.1962   -0.3949 H   0  0  0  0  0  0  0  0  0  0  0  0
  1 10  1  0  0  0  0
  1 21  1  0  0  0  0
  2 10  2  0  0  0  0
  3 11  2  0  0  0  0
  4  7  1  0  0  0  0
  4 11  1  0  0  0  0
  4 20  1  0  0  0  0
  5 11  1  0  0  0  0
  5 22  1  0  0  0  0
  5 23  1  0  0  0  0
  6  7  1  0  0  0  0
  6  8  1  0  0  0  0
  6  9  1  0  0  0  0
  6 12  1  0  0  0  0
  7 10  1  0  0  0  0
  7 13  1  0  0  0  0
  8 14  1  0  0  0  0
  8 15  1  0  0  0  0
  8 16  1  0  0  0  0
  9 17  1  0  0  0  0
  9 18  1  0  0  0  0
  9 19  1  0  0  0  0
M  END
> <PUBCHEM_COMPOUND_CID>
854021

> <PUBCHEM_CONFORMER_RMSD>
0.6

> <PUBCHEM_CONFORMER_DIVERSEORDER>
1
10
13
9
18
16
3
11
12
5
4
6
17
7
8
15
14
2

> <PUBCHEM_MMFF94_PARTIAL_CHARGES>
12
1 -0.65
10 0.66
11 0.69
2 -0.57
20 0.37
21 0.5
22 0.37
23 0.37
3 -0.57
4 -0.73
5 -0.8
7 0.36

> <PUBCHEM_EFFECTIVE_ROTOR_COUNT>
4

> <PUBCHEM_PHARMACOPHORE_FEATURES>
7
1 1 acceptor
1 2 acceptor
1 3 acceptor
1 4 donor
1 5 donor
3 1 2 10 anion
3 6 8 9 hydrophobe

> <PUBCHEM_HEAVY_ATOM_COUNT>
11

> <PUBCHEM_ATOM_DEF_STEREO_COUNT>
1

> <PUBCHEM_ATOM_UDEF_STEREO_COUNT>
0

> <PUBCHEM_BOND_DEF_STEREO_COUNT>
0

> <PUBCHEM_BOND_UDEF_STEREO_COUNT>
0

> <PUBCHEM_ISOTOPIC_ATOM_COUNT>
0

> <PUBCHEM_COMPONENT_COUNT>
1

> <PUBCHEM_CACTVS_TAUTO_COUNT>
3

> <PUBCHEM_CONFORMER_ID>
000D080500000001

> <PUBCHEM_MMFF94_ENERGY>
16.4792

> <PUBCHEM_FEATURE_SELFOVERLAP>
35.634

> <PUBCHEM_SHAPE_FINGERPRINT>
12932764 1 17775003535611405040
13024252 1 15195565723299756781
137420 1 14014047948631903169
16945 1 18263078825428235163
20653085 51 16733273463756116505
20871998 184 18337660966935851999
21040471 1 18196938987675794256
23235685 24 18194401314812760316
5084963 1 18058730358847435184
54338 74 17846494786239010281
6333449 129 18409450305769223745
81228 2 18341620265373527339

> <PUBCHEM_SHAPE_MULTIPOLES>
198.8
3.66
1.94
1.13
3.13
0.54
0.25
-0.39
-0.41
-1.54
0.14
-0.16
-0.39
0.34

> <PUBCHEM_SHAPE_SELFOVERLAP>
378.772

> <PUBCHEM_SHAPE_VOLUME>
122.1

> <PUBCHEM_COORDINATE_TYPE>
2
5
10

$$$$

