4439
  -OEChem-06261200072D

123127  0     1  0  0  0  0  0999 V2000
   14.0673    0.8831    0.0000 O   0  0  0  0  0  0  0  0  0  0  0  0
   12.3923    1.9709    0.0000 O   0  0  0  0  0  0  0  0  0  0  0  0
   11.5263    2.4709    0.0000 O   0  0  0  0  0  0  0  0  0  0  0  0
   14.6244   -1.5679    0.0000 O   0  0  0  0  0  0  0  0  0  0  0  0
   14.9904    1.4709    0.0000 O   0  0  0  0  0  0  0  0  0  0  0  0
    4.5981    2.4709    0.0000 O   0  0  0  0  0  0  0  0  0  0  0  0
   14.2583   -3.9340    0.0000 O   0  0  0  0  0  0  0  0  0  0  0  0
    7.1962    3.9709    0.0000 O   0  0  0  0  0  0  0  0  0  0  0  0
    8.9282    3.9709    0.0000 O   0  0  0  0  0  0  0  0  0  0  0  0
    2.0000    0.9709    0.0000 O   0  0  0  0  0  0  0  0  0  0  0  0
    3.7320    0.9709    0.0000 O   0  0  0  0  0  0  0  0  0  0  0  0
   13.7583   -0.0679    0.0000 C   0  0  3  0  0  0  0  0  0  0  0  0
   13.2583    1.4709    0.0000 C   0  0  3  0  0  0  0  0  0  0  0  0
   12.3923    2.9709    0.0000 C   0  0  3  0  0  0  0  0  0  0  0  0
   12.7583   -0.0679    0.0000 C   0  0  0  0  0  0  0  0  0  0  0  0
   12.4493    0.8831    0.0000 C   0  0  0  0  0  0  0  0  0  0  0  0
   13.7583   -1.0679    0.0000 C   0  0  3  0  0  0  0  0  0  0  0  0
   12.3923    3.9709    0.0000 C   0  0  3  0  0  0  0  0  0  0  0  0
   10.6603    2.9709    0.0000 C   0  0  3  0  0  0  0  0  0  0  0  0
   14.1244    1.9709    0.0000 C   0  0  3  0  0  0  0  0  0  0  0  0
   10.6603    3.9709    0.0000 C   0  0  3  0  0  0  0  0  0  0  0  0
   11.5263    4.4709    0.0000 C   0  0  0  0  0  0  0  0  0  0  0  0
   12.8923   -1.5679    0.0000 C   0  0  0  0  0  0  0  0  0  0  0  0
   13.7583   -3.0679    0.0000 C   0  0  3  0  0  0  0  0  0  0  0  0
    9.7942    2.4709    0.0000 C   0  0  3  0  0  0  0  0  0  0  0  0
   14.7094   -0.3770    0.0000 C   0  0  0  0  0  0  0  0  0  0  0  0
   12.8923   -2.5679    0.0000 C   0  0  0  0  0  0  0  0  0  0  0  0
   13.2583    3.4709    0.0000 C   0  0  0  0  0  0  0  0  0  0  0  0
   14.6244   -2.5679    0.0000 C   0  0  3  0  0  0  0  0  0  0  0  0
   14.1244    2.9709    0.0000 C   0  0  0  0  0  0  0  0  0  0  0  0
   13.2583    4.4709    0.0000 C   0  0  0  0  0  0  0  0  0  0  0  0
    9.7942    4.4709    0.0000 C   0  0  0  0  0  0  0  0  0  0  0  0
    5.4641    2.9709    0.0000 C   0  0  3  0  0  0  0  0  0  0  0  0
    6.3301    2.4709    0.0000 C   0  0  3  0  0  0  0  0  0  0  0  0
    8.9282    2.9709    0.0000 C   0  0  0  0  0  0  0  0  0  0  0  0
    8.0622    2.4709    0.0000 C   0  0  3  0  0  0  0  0  0  0  0  0
    5.4641    3.9709    0.0000 C   0  0  3  0  0  0  0  0  0  0  0  0
   13.2583   -3.9340    0.0000 C   0  0  0  0  0  0  0  0  0  0  0  0
    9.7942    1.4709    0.0000 C   0  0  0  0  0  0  0  0  0  0  0  0
    7.1962    2.9709    0.0000 C   0  0  3  0  0  0  0  0  0  0  0  0
    3.7320    3.9709    0.0000 C   0  0  3  0  0  0  0  0  0  0  0  0
    4.5981    4.4709    0.0000 C   0  0  0  0  0  0  0  0  0  0  0  0
    3.7320    2.9709    0.0000 C   0  0  3  0  0  0  0  0  0  0  0  0
   15.4904   -3.0679    0.0000 C   0  0  0  0  0  0  0  0  0  0  0  0
    6.3301    1.4709    0.0000 C   0  0  0  0  0  0  0  0  0  0  0  0
    2.8660    2.4709    0.0000 C   0  0  3  0  0  0  0  0  0  0  0  0
    8.0622    1.4709    0.0000 C   0  0  0  0  0  0  0  0  0  0  0  0
    6.3301    4.4709    0.0000 C   0  0  0  0  0  0  0  0  0  0  0  0
   12.2583   -3.9340    0.0000 C   0  0  0  0  0  0  0  0  0  0  0  0
    8.9282    0.9709    0.0000 C   0  0  0  0  0  0  0  0  0  0  0  0
    2.8660    4.4709    0.0000 C   0  0  0  0  0  0  0  0  0  0  0  0
    2.0000    2.9709    0.0000 C   0  0  0  0  0  0  0  0  0  0  0  0
    2.8660    1.4709    0.0000 C   0  0  0  0  0  0  0  0  0  0  0  0
   12.1519   -0.1968    0.0000 H   0  0  0  0  0  0  0  0  0  0  0  0
   12.8231   -0.6845    0.0000 H   0  0  0  0  0  0  0  0  0  0  0  0
   12.1393    1.4200    0.0000 H   0  0  0  0  0  0  0  0  0  0  0  0
   11.8829    0.6309    0.0000 H   0  0  0  0  0  0  0  0  0  0  0  0
   14.2953   -0.7579    0.0000 H   0  0  0  0  0  0  0  0  0  0  0  0
   12.3923    4.5909    0.0000 H   0  0  0  0  0  0  0  0  0  0  0  0
   10.6603    2.3509    0.0000 H   0  0  0  0  0  0  0  0  0  0  0  0
   14.1244    1.3509    0.0000 H   0  0  0  0  0  0  0  0  0  0  0  0
   10.6603    4.5909    0.0000 H   0  0  0  0  0  0  0  0  0  0  0  0
   11.9248    4.9458    0.0000 H   0  0  0  0  0  0  0  0  0  0  0  0
   11.1278    4.9458    0.0000 H   0  0  0  0  0  0  0  0  0  0  0  0
   12.6803   -0.9853    0.0000 H   0  0  0  0  0  0  0  0  0  0  0  0
   12.2817   -1.6756    0.0000 H   0  0  0  0  0  0  0  0  0  0  0  0
    9.2573    2.1609    0.0000 H   0  0  0  0  0  0  0  0  0  0  0  0
   14.5178   -0.9666    0.0000 H   0  0  0  0  0  0  0  0  0  0  0  0
   15.2990   -0.5685    0.0000 H   0  0  0  0  0  0  0  0  0  0  0  0
   14.9010    0.2127    0.0000 H   0  0  0  0  0  0  0  0  0  0  0  0
   12.2817   -2.4603    0.0000 H   0  0  0  0  0  0  0  0  0  0  0  0
   12.6803   -3.1506    0.0000 H   0  0  0  0  0  0  0  0  0  0  0  0
   13.2583    4.0909    0.0000 H   0  0  0  0  0  0  0  0  0  0  0  0
   15.1613   -2.2579    0.0000 H   0  0  0  0  0  0  0  0  0  0  0  0
   14.6613    3.2809    0.0000 H   0  0  0  0  0  0  0  0  0  0  0  0
   13.5683    3.9340    0.0000 H   0  0  0  0  0  0  0  0  0  0  0  0
   13.7953    4.7809    0.0000 H   0  0  0  0  0  0  0  0  0  0  0  0
   12.9483    5.0078    0.0000 H   0  0  0  0  0  0  0  0  0  0  0  0
    5.4641    2.3509    0.0000 H   0  0  0  0  0  0  0  0  0  0  0  0
   10.1042    5.0078    0.0000 H   0  0  0  0  0  0  0  0  0  0  0  0
    9.2573    4.7809    0.0000 H   0  0  0  0  0  0  0  0  0  0  0  0
    9.4842    3.9340    0.0000 H   0  0  0  0  0  0  0  0  0  0  0  0
    6.8671    2.1609    0.0000 H   0  0  0  0  0  0  0  0  0  0  0  0
    7.5252    2.1609    0.0000 H   0  0  0  0  0  0  0  0  0  0  0  0
    5.4641    4.5909    0.0000 H   0  0  0  0  0  0  0  0  0  0  0  0
   13.1507   -4.5446    0.0000 H   0  0  0  0  0  0  0  0  0  0  0  0
   13.8409   -4.1460    0.0000 H   0  0  0  0  0  0  0  0  0  0  0  0
   10.0063    0.8883    0.0000 H   0  0  0  0  0  0  0  0  0  0  0  0
   10.4048    1.5786    0.0000 H   0  0  0  0  0  0  0  0  0  0  0  0
    6.6592    3.2809    0.0000 H   0  0  0  0  0  0  0  0  0  0  0  0
    3.7320    4.5909    0.0000 H   0  0  0  0  0  0  0  0  0  0  0  0
    4.9966    4.9458    0.0000 H   0  0  0  0  0  0  0  0  0  0  0  0
    4.1996    4.9458    0.0000 H   0  0  0  0  0  0  0  0  0  0  0  0
    3.7320    2.3509    0.0000 H   0  0  0  0  0  0  0  0  0  0  0  0
   15.1804   -3.6049    0.0000 H   0  0  0  0  0  0  0  0  0  0  0  0
   16.0273   -3.3779    0.0000 H   0  0  0  0  0  0  0  0  0  0  0  0
   15.8004   -2.5310    0.0000 H   0  0  0  0  0  0  0  0  0  0  0  0
   15.5273    1.7809    0.0000 H   0  0  0  0  0  0  0  0  0  0  0  0
   13.9483   -4.4709    0.0000 H   0  0  0  0  0  0  0  0  0  0  0  0
    5.7101    1.4709    0.0000 H   0  0  0  0  0  0  0  0  0  0  0  0
    6.3301    0.8509    0.0000 H   0  0  0  0  0  0  0  0  0  0  0  0
    6.9501    1.4709    0.0000 H   0  0  0  0  0  0  0  0  0  0  0  0
    2.8660    3.0909    0.0000 H   0  0  0  0  0  0  0  0  0  0  0  0
    7.4422    1.4709    0.0000 H   0  0  0  0  0  0  0  0  0  0  0  0
    8.0622    0.8509    0.0000 H   0  0  0  0  0  0  0  0  0  0  0  0
    8.6822    1.4709    0.0000 H   0  0  0  0  0  0  0  0  0  0  0  0
    6.6401    3.9340    0.0000 H   0  0  0  0  0  0  0  0  0  0  0  0
    6.8671    4.7809    0.0000 H   0  0  0  0  0  0  0  0  0  0  0  0
    6.0201    5.0078    0.0000 H   0  0  0  0  0  0  0  0  0  0  0  0
   12.2583   -3.3140    0.0000 H   0  0  0  0  0  0  0  0  0  0  0  0
   11.6383   -3.9340    0.0000 H   0  0  0  0  0  0  0  0  0  0  0  0
   12.2583   -4.5540    0.0000 H   0  0  0  0  0  0  0  0  0  0  0  0
    8.6182    1.5078    0.0000 H   0  0  0  0  0  0  0  0  0  0  0  0
    8.3913    0.6609    0.0000 H   0  0  0  0  0  0  0  0  0  0  0  0
    9.2382    0.4340    0.0000 H   0  0  0  0  0  0  0  0  0  0  0  0
    3.1760    5.0078    0.0000 H   0  0  0  0  0  0  0  0  0  0  0  0
    2.3291    4.7809    0.0000 H   0  0  0  0  0  0  0  0  0  0  0  0
    2.5560    3.9340    0.0000 H   0  0  0  0  0  0  0  0  0  0  0  0
    7.7331    4.2809    0.0000 H   0  0  0  0  0  0  0  0  0  0  0  0
    2.3100    3.5078    0.0000 H   0  0  0  0  0  0  0  0  0  0  0  0
    1.4631    3.2809    0.0000 H   0  0  0  0  0  0  0  0  0  0  0  0
    1.6900    2.4340    0.0000 H   0  0  0  0  0  0  0  0  0  0  0  0
    2.0000    0.3509    0.0000 H   0  0  0  0  0  0  0  0  0  0  0  0
  1 12  1  0  0  0  0
  1 13  1  0  0  0  0
  2 13  1  0  0  0  0
  2 14  1  0  0  0  0
  3 14  1  0  0  0  0
  3 19  1  0  0  0  0
  4 17  1  0  0  0  0
  4 29  1  0  0  0  0
  5 20  1  0  0  0  0
  5 98  1  0  0  0  0
  6 33  1  0  0  0  0
  6 43  1  0  0  0  0
  7 24  1  0  0  0  0
  7 99  1  0  0  0  0
  8 40  1  0  0  0  0
  8119  1  0  0  0  0
  9 35  2  0  0  0  0
 10 53  1  0  0  0  0
 10123  1  0  0  0  0
 11 53  2  0  0  0  0
 12 15  1  0  0  0  0
 12 17  1  0  0  0  0
 12 26  1  0  0  0  0
 13 16  1  0  0  0  0
 13 20  1  0  0  0  0
 14 18  1  0  0  0  0
 14 28  1  0  0  0  0
 15 16  1  0  0  0  0
 15 54  1  0  0  0  0
 15 55  1  0  0  0  0
 16 56  1  0  0  0  0
 16 57  1  0  0  0  0
 17 23  1  0  0  0  0
 17 58  1  0  0  0  0
 18 22  1  0  0  0  0
 18 31  1  0  0  0  0
 18 59  1  0  0  0  0
 19 21  1  0  0  0  0
 19 25  1  0  0  0  0
 19 60  1  0  0  0  0
 20 30  1  0  0  0  0
 20 61  1  0  0  0  0
 21 22  1  0  0  0  0
 21 32  1  0  0  0  0
 21 62  1  0  0  0  0
 22 63  1  0  0  0  0
 22 64  1  0  0  0  0
 23 27  1  0  0  0  0
 23 65  1  0  0  0  0
 23 66  1  0  0  0  0
 24 27  1  0  0  0  0
 24 29  1  0  0  0  0
 24 38  1  0  0  0  0
 25 35  1  0  0  0  0
 25 39  1  0  0  0  0
 25 67  1  0  0  0  0
 26 68  1  0  0  0  0
 26 69  1  0  0  0  0
 26 70  1  0  0  0  0
 27 71  1  0  0  0  0
 27 72  1  0  0  0  0
 28 30  2  0  0  0  0
 28 73  1  0  0  0  0
 29 44  1  0  0  0  0
 29 74  1  0  0  0  0
 30 75  1  0  0  0  0
 31 76  1  0  0  0  0
 31 77  1  0  0  0  0
 31 78  1  0  0  0  0
 32 80  1  0  0  0  0
 32 81  1  0  0  0  0
 32 82  1  0  0  0  0
 33 34  1  0  0  0  0
 33 37  1  0  0  0  0
 33 79  1  0  0  0  0
 34 40  1  0  0  0  0
 34 45  1  0  0  0  0
 34 83  1  0  0  0  0
 35 36  1  0  0  0  0
 36 40  1  0  0  0  0
 36 47  1  0  0  0  0
 36 84  1  0  0  0  0
 37 42  1  0  0  0  0
 37 48  1  0  0  0  0
 37 85  1  0  0  0  0
 38 49  1  0  0  0  0
 38 86  1  0  0  0  0
 38 87  1  0  0  0  0
 39 50  1  0  0  0  0
 39 88  1  0  0  0  0
 39 89  1  0  0  0  0
 40 90  1  0  0  0  0
 41 42  1  0  0  0  0
 41 43  1  0  0  0  0
 41 51  1  0  0  0  0
 41 91  1  0  0  0  0
 42 92  1  0  0  0  0
 42 93  1  0  0  0  0
 43 46  1  0  0  0  0
 43 94  1  0  0  0  0
 44 95  1  0  0  0  0
 44 96  1  0  0  0  0
 44 97  1  0  0  0  0
 45100  1  0  0  0  0
 45101  1  0  0  0  0
 45102  1  0  0  0  0
 46 52  1  0  0  0  0
 46 53  1  0  0  0  0
 46103  1  0  0  0  0
 47104  1  0  0  0  0
 47105  1  0  0  0  0
 47106  1  0  0  0  0
 48107  1  0  0  0  0
 48108  1  0  0  0  0
 48109  1  0  0  0  0
 49110  1  0  0  0  0
 49111  1  0  0  0  0
 49112  1  0  0  0  0
 50113  1  0  0  0  0
 50114  1  0  0  0  0
 50115  1  0  0  0  0
 51116  1  0  0  0  0
 51117  1  0  0  0  0
 51118  1  0  0  0  0
 52120  1  0  0  0  0
 52121  1  0  0  0  0
 52122  1  0  0  0  0
M  END
> <PUBCHEM_COMPOUND_CID>
4439

> <PUBCHEM_COMPOUND_CANONICALIZED>
1

> <PUBCHEM_CACTVS_COMPLEXITY>
1340

> <PUBCHEM_CACTVS_HBOND_ACCEPTOR>
11

> <PUBCHEM_CACTVS_HBOND_DONOR>
4

> <PUBCHEM_CACTVS_ROTATABLE_BOND>
11

> <PUBCHEM_CACTVS_SUBSKEYS>
AAADcfB8PAAAAAAAAAAAAAAAAAAAASAAAAAkSJEAAAAAAAAAAAAAGgAACAAADVSggAICCAAABgCIAKDSCAAAAAAgAAAICAEAAAgRFBYAIQAiUAAF4AAPMAPI7PzOAAAAAAAAAAAAAAAAAAAAAAAAAAAAAA==

> <PUBCHEM_IUPAC_OPENEYE_NAME>
2-[6-[5-[3-(5-ethyl-5-hydroxy-6-methyl-tetrahydropyran-2-yl)-15-hydroxy-3,10,12-trimethyl-4,6,8-trioxadispiro[4.1.5^{7}.3^{5}]pentadec-13-en-9-yl]-2-hydroxy-1,3-dimethyl-4-oxo-heptyl]-3,5-dimethyl-tetrahydropyran-2-yl]propanoic acid

> <PUBCHEM_IUPAC_CAS_NAME>
2-[6-[6-[3-(5-ethyl-5-hydroxy-6-methyl-2-oxanyl)-15-hydroxy-3,10,12-trimethyl-4,6,8-trioxadispiro[4.1.5^{7}.3^{5}]pentadec-13-en-9-yl]-3-hydroxy-4-methyl-5-oxooctan-2-yl]-3,5-dimethyl-2-oxanyl]propanoic acid

> <PUBCHEM_IUPAC_NAME>
2-[6-[6-[3-(5-ethyl-5-hydroxy-6-methyloxan-2-yl)-15-hydroxy-3,10,12-trimethyl-4,6,8-trioxadispiro[4.1.5^{7}.3^{5}]pentadec-13-en-9-yl]-3-hydroxy-4-methyl-5-oxooctan-2-yl]-3,5-dimethyloxan-2-yl]propanoic acid

> <PUBCHEM_IUPAC_SYSTEMATIC_NAME>
2-[6-[6-[3-(5-ethyl-6-methyl-5-oxidanyl-oxan-2-yl)-3,10,12-trimethyl-15-oxidanyl-4,6,8-trioxadispiro[4.1.5^{7}.3^{5}]pentadec-13-en-9-yl]-4-methyl-3-oxidanyl-5-oxidanylidene-octan-2-yl]-3,5-dimethyl-oxan-2-yl]propanoic acid

> <PUBCHEM_IUPAC_TRADITIONAL_NAME>
2-[6-[5-[3-(5-ethyl-5-hydroxy-6-methyl-tetrahydropyran-2-yl)-15-hydroxy-3,10,12-trimethyl-4,6,8-trioxadispiro[4.1.5^{7}.3^{5}]pentadec-13-en-9-yl]-2-hydroxy-4-keto-1,3-dimethyl-heptyl]-3,5-dimethyl-tetrahydropyran-2-yl]propionic acid

> <PUBCHEM_IUPAC_INCHI>
InChI=1S/C42H70O11/c1-12-30(34(45)26(7)33(44)27(8)35-22(3)20-23(4)36(50-35)28(9)38(46)47)37-24(5)21-25(6)41(51-37)17-14-31(43)42(53-41)19-18-39(11,52-42)32-15-16-40(48,13-2)29(10)49-32/h14,17,22-33,35-37,43-44,48H,12-13,15-16,18-21H2,1-11H3,(H,46,47)

> <PUBCHEM_IUPAC_INCHIKEY>
NYFGCWRULSXSSJ-UHFFFAOYSA-N

> <PUBCHEM_XLOGP3_AA>
5.8

> <PUBCHEM_EXACT_MASS>
750.491813

> <PUBCHEM_MOLECULAR_FORMULA>
C42H70O11

> <PUBCHEM_MOLECULAR_WEIGHT>
750.9986

> <PUBCHEM_OPENEYE_CAN_SMILES>
CCC(C1C(CC(C2(O1)C=CC(C3(O2)CCC(O3)(C)C4CCC(C(O4)C)(CC)O)O)C)C)C(=O)C(C)C(C(C)C5C(CC(C(O5)C(C)C(=O)O)C)C)O

> <PUBCHEM_OPENEYE_ISO_SMILES>
CCC(C1C(CC(C2(O1)C=CC(C3(O2)CCC(O3)(C)C4CCC(C(O4)C)(CC)O)O)C)C)C(=O)C(C)C(C(C)C5C(CC(C(O5)C(C)C(=O)O)C)C)O

> <PUBCHEM_CACTVS_TPSA>
161

> <PUBCHEM_MONOISOTOPIC_WEIGHT>
750.491813

> <PUBCHEM_TOTAL_CHARGE>
0

> <PUBCHEM_HEAVY_ATOM_COUNT>
53

> <PUBCHEM_ATOM_DEF_STEREO_COUNT>
0

> <PUBCHEM_ATOM_UDEF_STEREO_COUNT>
19

> <PUBCHEM_BOND_DEF_STEREO_COUNT>
0

> <PUBCHEM_BOND_UDEF_STEREO_COUNT>
0

> <PUBCHEM_ISOTOPIC_ATOM_COUNT>
0

> <PUBCHEM_COMPONENT_COUNT>
1

> <PUBCHEM_CACTVS_TAUTO_COUNT>
3

> <PUBCHEM_COORDINATE_TYPE>
1
5
255

> <PUBCHEM_BONDANNOTATIONS>
12  26  3
13  16  3
14  28  3
17  23  3
18  31  3
21  32  3
25  39  3
29  44  3
19  3  3
34  45  3
36  47  3
37  48  3
41  51  3
46  52  3
20  5  3
33  6  3
43  6  3
24  7  3
40  8  3

$$$$

