10798
  -OEChem-06261204583D

 14 14  0     0  0  0  0  0  0999 V2000
   -0.0887   -1.1120   -0.0115 N   0  0  0  0  0  0  0  0  0  0  0  0
    0.0699    1.1581    0.0078 N   0  0  0  0  0  0  0  0  0  0  0  0
   -1.4726   -0.7466    0.0167 C   0  0  0  0  0  0  0  0  0  0  0  0
   -1.3786    0.7863   -0.0113 C   0  0  0  0  0  0  0  0  0  0  0  0
    0.6899    0.0053   -0.0076 C   0  0  0  0  0  0  0  0  0  0  0  0
    2.1802   -0.0912    0.0058 C   0  0  0  0  0  0  0  0  0  0  0  0
   -1.9586   -1.1005    0.9306 H   0  0  0  0  0  0  0  0  0  0  0  0
   -2.0107   -1.1332   -0.8535 H   0  0  0  0  0  0  0  0  0  0  0  0
   -1.8436    1.1904   -0.9169 H   0  0  0  0  0  0  0  0  0  0  0  0
   -1.8810    1.2256    0.8570 H   0  0  0  0  0  0  0  0  0  0  0  0
    0.2408   -2.0695   -0.0036 H   0  0  0  0  0  0  0  0  0  0  0  0
    2.5128   -0.3609    1.0119 H   0  0  0  0  0  0  0  0  0  0  0  0
    2.6266    0.8664   -0.2749 H   0  0  0  0  0  0  0  0  0  0  0  0
    2.5088   -0.8616   -0.6969 H   0  0  0  0  0  0  0  0  0  0  0  0
  1  3  1  0  0  0  0
  1  5  1  0  0  0  0
  1 11  1  0  0  0  0
  2  4  1  0  0  0  0
  2  5  2  0  0  0  0
  3  4  1  0  0  0  0
  3  7  1  0  0  0  0
  3  8  1  0  0  0  0
  4  9  1  0  0  0  0
  4 10  1  0  0  0  0
  5  6  1  0  0  0  0
  6 12  1  0  0  0  0
  6 13  1  0  0  0  0
  6 14  1  0  0  0  0
M  END
> <PUBCHEM_COMPOUND_CID>
10798

> <PUBCHEM_CONFORMER_RMSD>
0.4

> <PUBCHEM_CONFORMER_DIVERSEORDER>
1

> <PUBCHEM_MMFF94_PARTIAL_CHARGES>
7
1 -0.82
11 0.4
2 -0.7
3 0.37
4 0.25
5 0.44
6 0.06

> <PUBCHEM_EFFECTIVE_ROTOR_COUNT>
0.6

> <PUBCHEM_PHARMACOPHORE_FEATURES>
3
1 1 donor
3 1 2 5 cation
5 1 2 3 4 5 rings

> <PUBCHEM_HEAVY_ATOM_COUNT>
6

> <PUBCHEM_ATOM_DEF_STEREO_COUNT>
0

> <PUBCHEM_ATOM_UDEF_STEREO_COUNT>
0

> <PUBCHEM_BOND_DEF_STEREO_COUNT>
0

> <PUBCHEM_BOND_UDEF_STEREO_COUNT>
0

> <PUBCHEM_ISOTOPIC_ATOM_COUNT>
0

> <PUBCHEM_COMPONENT_COUNT>
1

> <PUBCHEM_CACTVS_TAUTO_COUNT>
1

> <PUBCHEM_CONFORMER_ID>
00002A2E00000001

> <PUBCHEM_MMFF94_ENERGY>
16.1202

> <PUBCHEM_FEATURE_SELFOVERLAP>
15.223

> <PUBCHEM_SHAPE_FINGERPRINT>
139733 1 9222965763039745026
16714656 1 18410849975628991726
20096714 4 18339079409844527992
21015797 1 9293558816295447969
21040471 1 18194402422856066533
23552423 10 18272644697192167310
29004967 10 18341607062554421162
5460574 1 9223236247390330530
5943 1 13584056996918351325

> <PUBCHEM_SHAPE_MULTIPOLES>
113.52
2.28
1.16
0.59
0.88
0.03
0
-0.09
0.01
-0.3
0
0
0
0

> <PUBCHEM_SHAPE_SELFOVERLAP>
219.578

> <PUBCHEM_SHAPE_VOLUME>
69.3

> <PUBCHEM_COORDINATE_TYPE>
2
5
10

$$$$

