13548
  -OEChem-06241222392D

 26 25  0     0  0  0  0  0  0999 V2000
    5.1350   -0.0600    0.0000 N   0  0  0  0  0  0  0  0  0  0  0  0
    4.2690    1.4400    0.0000 N   0  0  0  0  0  0  0  0  0  0  0  0
    6.0010    1.4400    0.0000 N   0  0  0  0  0  0  0  0  0  0  0  0
    2.5369    1.4400    0.0000 N   0  0  0  0  0  0  0  0  0  0  0  0
    3.4030   -0.0600    0.0000 N   0  0  0  0  0  0  0  0  0  0  0  0
    6.0010   -1.5600    0.0000 C   0  0  0  0  0  0  0  0  0  0  0  0
    6.0010   -0.5600    0.0000 C   0  0  0  0  0  0  0  0  0  0  0  0
    6.8671   -2.0600    0.0000 C   0  0  0  0  0  0  0  0  0  0  0  0
    5.1350   -2.0600    0.0000 C   0  0  0  0  0  0  0  0  0  0  0  0
    5.1350    0.9400    0.0000 C   0  0  0  0  0  0  0  0  0  0  0  0
    3.4030    0.9400    0.0000 C   0  0  0  0  0  0  0  0  0  0  0  0
    6.5380   -1.2500    0.0000 H   0  0  0  0  0  0  0  0  0  0  0  0
    6.6116   -0.6677    0.0000 H   0  0  0  0  0  0  0  0  0  0  0  0
    6.2131    0.0226    0.0000 H   0  0  0  0  0  0  0  0  0  0  0  0
    6.5571   -2.5969    0.0000 H   0  0  0  0  0  0  0  0  0  0  0  0
    7.4040   -2.3700    0.0000 H   0  0  0  0  0  0  0  0  0  0  0  0
    7.1771   -1.5231    0.0000 H   0  0  0  0  0  0  0  0  0  0  0  0
    4.8250   -1.5231    0.0000 H   0  0  0  0  0  0  0  0  0  0  0  0
    4.5981   -2.3700    0.0000 H   0  0  0  0  0  0  0  0  0  0  0  0
    5.4450   -2.5969    0.0000 H   0  0  0  0  0  0  0  0  0  0  0  0
    6.5380    1.1300    0.0000 H   0  0  0  0  0  0  0  0  0  0  0  0
    6.0010    2.0600    0.0000 H   0  0  0  0  0  0  0  0  0  0  0  0
    2.8660   -0.3700    0.0000 H   0  0  0  0  0  0  0  0  0  0  0  0
    3.9399   -0.3700    0.0000 H   0  0  0  0  0  0  0  0  0  0  0  0
    2.0000    1.1300    0.0000 H   0  0  0  0  0  0  0  0  0  0  0  0
    2.5369    2.0600    0.0000 H   0  0  0  0  0  0  0  0  0  0  0  0
  1  7  1  0  0  0  0
  1 10  2  0  0  0  0
  2 10  1  0  0  0  0
  2 11  2  0  0  0  0
  3 10  1  0  0  0  0
  3 21  1  0  0  0  0
  3 22  1  0  0  0  0
  4 11  1  0  0  0  0
  4 25  1  0  0  0  0
  4 26  1  0  0  0  0
  5 11  1  0  0  0  0
  5 23  1  0  0  0  0
  5 24  1  0  0  0  0
  6  7  1  0  0  0  0
  6  8  1  0  0  0  0
  6  9  1  0  0  0  0
  6 12  1  0  0  0  0
  7 13  1  0  0  0  0
  7 14  1  0  0  0  0
  8 15  1  0  0  0  0
  8 16  1  0  0  0  0
  8 17  1  0  0  0  0
  9 18  1  0  0  0  0
  9 19  1  0  0  0  0
  9 20  1  0  0  0  0
M  END
> <PUBCHEM_COMPOUND_CID>
13548

> <PUBCHEM_COMPOUND_CANONICALIZED>
1

> <PUBCHEM_CACTVS_COMPLEXITY>
166

> <PUBCHEM_CACTVS_HBOND_ACCEPTOR>
1

> <PUBCHEM_CACTVS_HBOND_DONOR>
3

> <PUBCHEM_CACTVS_ROTATABLE_BOND>
3

> <PUBCHEM_CACTVS_SUBSKEYS>
AAADccBjgAAAAAAAAAAAAAAAAAAAAAAAAAAAAAAAAAAAAAAAAAAAHAAQAAAADQDBAAQDAAJAAAAgAAAAJAAAAAEAAAAAAAAAAAAAAAAAAAAAAAAAAAAAAAAAAAAAAAAAAAAAAAAAAAAAAAAAAAAAAAAAAA==

> <PUBCHEM_IUPAC_OPENEYE_NAME>
1-(diaminomethylene)-2-isobutyl-guanidine

> <PUBCHEM_IUPAC_CAS_NAME>
1-(diaminomethylidene)-2-(2-methylpropyl)guanidine

> <PUBCHEM_IUPAC_NAME>
1-(diaminomethylidene)-2-(2-methylpropyl)guanidine

> <PUBCHEM_IUPAC_SYSTEMATIC_NAME>
1-[bis(azanyl)methylidene]-2-(2-methylpropyl)guanidine

> <PUBCHEM_IUPAC_TRADITIONAL_NAME>
1-(diaminomethylene)-2-isobutyl-guanidine

> <PUBCHEM_IUPAC_INCHI>
InChI=1S/C6H15N5/c1-4(2)3-10-6(9)11-5(7)8/h4H,3H2,1-2H3,(H6,7,8,9,10,11)

> <PUBCHEM_IUPAC_INCHIKEY>
MEJDQAVLXWMLHL-UHFFFAOYSA-N

> <PUBCHEM_XLOGP3_AA>
-0.5

> <PUBCHEM_EXACT_MASS>
157.132746

> <PUBCHEM_MOLECULAR_FORMULA>
C6H15N5

> <PUBCHEM_MOLECULAR_WEIGHT>
157.2168

> <PUBCHEM_OPENEYE_CAN_SMILES>
CC(C)CN=C(N)N=C(N)N

> <PUBCHEM_OPENEYE_ISO_SMILES>
CC(C)CN=C(N)N=C(N)N

> <PUBCHEM_CACTVS_TPSA>
103

> <PUBCHEM_MONOISOTOPIC_WEIGHT>
157.132746

> <PUBCHEM_TOTAL_CHARGE>
0

> <PUBCHEM_HEAVY_ATOM_COUNT>
11

> <PUBCHEM_ATOM_DEF_STEREO_COUNT>
0

> <PUBCHEM_ATOM_UDEF_STEREO_COUNT>
0

> <PUBCHEM_BOND_DEF_STEREO_COUNT>
0

> <PUBCHEM_BOND_UDEF_STEREO_COUNT>
0

> <PUBCHEM_ISOTOPIC_ATOM_COUNT>
0

> <PUBCHEM_COMPONENT_COUNT>
1

> <PUBCHEM_CACTVS_TAUTO_COUNT>
5

> <PUBCHEM_COORDINATE_TYPE>
1
5
255

$$$$

