17396094
  -OEChem-06241222542D

 43 45  0     0  0  0  0  0  0999 V2000
    2.0570   -1.1700    0.0000 S   0  0  0  0  0  0  0  0  0  0  0  0
    4.9483    0.4856    0.0000 O   0  0  0  0  0  0  0  0  0  0  0  0
    3.5471    1.5036    0.0000 N   0  0  0  0  0  0  0  0  0  0  0  0
    3.6750   -1.1700    0.0000 N   0  0  0  0  0  0  0  0  0  0  0  0
    3.9092    4.9488    0.0000 N   0  0  0  0  0  0  0  0  0  0  0  0
    4.1349    2.3126    0.0000 C   0  0  0  0  0  0  0  0  0  0  0  0
    3.7281    3.2262    0.0000 C   0  0  0  0  0  0  0  0  0  0  0  0
    4.3159    4.0352    0.0000 C   0  0  0  0  0  0  0  0  0  0  0  0
    3.9538    0.5901    0.0000 C   0  0  0  0  0  0  0  0  0  0  0  0
    2.5526    1.6082    0.0000 C   0  0  0  0  0  0  0  0  0  0  0  0
    3.3660   -0.2189    0.0000 C   0  0  0  0  0  0  0  0  0  0  0  0
    2.8660   -2.7578    0.0000 C   0  0  0  0  0  0  0  0  0  0  0  0
    2.8660   -1.7578    0.0000 C   0  0  0  0  0  0  0  0  0  0  0  0
    5.3104    3.9307    0.0000 C   0  0  0  0  0  0  0  0  0  0  0  0
    2.3660   -0.2189    0.0000 C   0  0  0  0  0  0  0  0  0  0  0  0
    2.0000   -3.2578    0.0000 C   0  0  0  0  0  0  0  0  0  0  0  0
    3.7320   -3.2578    0.0000 C   0  0  0  0  0  0  0  0  0  0  0  0
    2.8660   -4.7578    0.0000 C   0  0  0  0  0  0  0  0  0  0  0  0
    2.0000   -4.2578    0.0000 C   0  0  0  0  0  0  0  0  0  0  0  0
    3.7320   -4.2578    0.0000 C   0  0  0  0  0  0  0  0  0  0  0  0
    5.8982    4.7397    0.0000 C   0  0  0  0  0  0  0  0  0  0  0  0
    4.4970    5.7578    0.0000 C   0  0  0  0  0  0  0  0  0  0  0  0
    5.4915    5.6532    0.0000 C   0  0  0  0  0  0  0  0  0  0  0  0
    2.8660   -5.7578    0.0000 C   0  0  0  0  0  0  0  0  0  0  0  0
    4.5656    1.8667    0.0000 H   0  0  0  0  0  0  0  0  0  0  0  0
    4.6489    2.6594    0.0000 H   0  0  0  0  0  0  0  0  0  0  0  0
    3.2974    3.6722    0.0000 H   0  0  0  0  0  0  0  0  0  0  0  0
    3.2141    2.8795    0.0000 H   0  0  0  0  0  0  0  0  0  0  0  0
    2.6174    2.2248    0.0000 H   0  0  0  0  0  0  0  0  0  0  0  0
    1.9360    1.6730    0.0000 H   0  0  0  0  0  0  0  0  0  0  0  0
    2.4877    0.9916    0.0000 H   0  0  0  0  0  0  0  0  0  0  0  0
    5.5626    3.3643    0.0000 H   0  0  0  0  0  0  0  0  0  0  0  0
    2.0016    0.2827    0.0000 H   0  0  0  0  0  0  0  0  0  0  0  0
    1.4631   -2.9478    0.0000 H   0  0  0  0  0  0  0  0  0  0  0  0
    4.2690   -2.9478    0.0000 H   0  0  0  0  0  0  0  0  0  0  0  0
    1.4631   -4.5678    0.0000 H   0  0  0  0  0  0  0  0  0  0  0  0
    4.2690   -4.5678    0.0000 H   0  0  0  0  0  0  0  0  0  0  0  0
    6.5148    4.6749    0.0000 H   0  0  0  0  0  0  0  0  0  0  0  0
    4.2448    6.3242    0.0000 H   0  0  0  0  0  0  0  0  0  0  0  0
    5.8559    6.1548    0.0000 H   0  0  0  0  0  0  0  0  0  0  0  0
    2.2460   -5.7578    0.0000 H   0  0  0  0  0  0  0  0  0  0  0  0
    2.8660   -6.3778    0.0000 H   0  0  0  0  0  0  0  0  0  0  0  0
    3.4860   -5.7578    0.0000 H   0  0  0  0  0  0  0  0  0  0  0  0
  1 13  1  0  0  0  0
  1 15  1  0  0  0  0
  2  9  2  0  0  0  0
  3  6  1  0  0  0  0
  3  9  1  0  0  0  0
  3 10  1  0  0  0  0
  4 11  1  0  0  0  0
  4 13  2  0  0  0  0
  5  8  1  0  0  0  0
  5 22  2  0  0  0  0
  6  7  1  0  0  0  0
  6 25  1  0  0  0  0
  6 26  1  0  0  0  0
  7  8  1  0  0  0  0
  7 27  1  0  0  0  0
  7 28  1  0  0  0  0
  8 14  2  0  0  0  0
  9 11  1  0  0  0  0
 10 29  1  0  0  0  0
 10 30  1  0  0  0  0
 10 31  1  0  0  0  0
 11 15  2  0  0  0  0
 12 13  1  0  0  0  0
 12 16  2  0  0  0  0
 12 17  1  0  0  0  0
 14 21  1  0  0  0  0
 14 32  1  0  0  0  0
 15 33  1  0  0  0  0
 16 19  1  0  0  0  0
 16 34  1  0  0  0  0
 17 20  2  0  0  0  0
 17 35  1  0  0  0  0
 18 19  2  0  0  0  0
 18 20  1  0  0  0  0
 18 24  1  0  0  0  0
 19 36  1  0  0  0  0
 20 37  1  0  0  0  0
 21 23  2  0  0  0  0
 21 38  1  0  0  0  0
 22 23  1  0  0  0  0
 22 39  1  0  0  0  0
 23 40  1  0  0  0  0
 24 41  1  0  0  0  0
 24 42  1  0  0  0  0
 24 43  1  0  0  0  0
M  END
> <PUBCHEM_COMPOUND_CID>
17396094

> <PUBCHEM_COMPOUND_CANONICALIZED>
1

> <PUBCHEM_CACTVS_COMPLEXITY>
411

> <PUBCHEM_CACTVS_HBOND_ACCEPTOR>
4

> <PUBCHEM_CACTVS_HBOND_DONOR>
0

> <PUBCHEM_CACTVS_ROTATABLE_BOND>
5

> <PUBCHEM_CACTVS_SUBSKEYS>
AAADceB7IABAAAAAAAAAAAAAAAAAAWAAAAA8QAAAAAAAAAAB8AAAHgQAAAAADAjF3gS+gZMIEAisAzV3VACC8KB3CjgI2DW4ZNgIYOLg0bGUIAhghgDoyIcQgAAOQAAAAAAAAACAAAAAAAAAAAAAAAAAAA==

> <PUBCHEM_IUPAC_OPENEYE_NAME>
N-methyl-2-(p-tolyl)-N-[2-(2-pyridyl)ethyl]thiazole-4-carboxamide

> <PUBCHEM_IUPAC_CAS_NAME>
N-methyl-2-(4-methylphenyl)-N-[2-(2-pyridinyl)ethyl]-4-thiazolecarboxamide

> <PUBCHEM_IUPAC_NAME>
N-methyl-2-(4-methylphenyl)-N-(2-pyridin-2-ylethyl)-1,3-thiazole-4-carboxamide

> <PUBCHEM_IUPAC_SYSTEMATIC_NAME>
N-methyl-2-(4-methylphenyl)-N-(2-pyridin-2-ylethyl)-1,3-thiazole-4-carboxamide

> <PUBCHEM_IUPAC_TRADITIONAL_NAME>
N-methyl-2-(p-tolyl)-N-[2-(2-pyridyl)ethyl]thiazole-4-carboxamide

> <PUBCHEM_IUPAC_INCHI>
InChI=1S/C19H19N3OS/c1-14-6-8-15(9-7-14)18-21-17(13-24-18)19(23)22(2)12-10-16-5-3-4-11-20-16/h3-9,11,13H,10,12H2,1-2H3

> <PUBCHEM_IUPAC_INCHIKEY>
RASQWSWNWZOXDL-UHFFFAOYSA-N

> <PUBCHEM_XLOGP3_AA>
3.7

> <PUBCHEM_EXACT_MASS>
337.124883

> <PUBCHEM_MOLECULAR_FORMULA>
C19H19N3OS

> <PUBCHEM_MOLECULAR_WEIGHT>
337.43866

> <PUBCHEM_OPENEYE_CAN_SMILES>
CC1=CC=C(C=C1)C2=NC(=CS2)C(=O)N(C)CCC3=CC=CC=N3

> <PUBCHEM_OPENEYE_ISO_SMILES>
CC1=CC=C(C=C1)C2=NC(=CS2)C(=O)N(C)CCC3=CC=CC=N3

> <PUBCHEM_CACTVS_TPSA>
74.3

> <PUBCHEM_MONOISOTOPIC_WEIGHT>
337.124883

> <PUBCHEM_TOTAL_CHARGE>
0

> <PUBCHEM_HEAVY_ATOM_COUNT>
24

> <PUBCHEM_ATOM_DEF_STEREO_COUNT>
0

> <PUBCHEM_ATOM_UDEF_STEREO_COUNT>
0

> <PUBCHEM_BOND_DEF_STEREO_COUNT>
0

> <PUBCHEM_BOND_UDEF_STEREO_COUNT>
0

> <PUBCHEM_ISOTOPIC_ATOM_COUNT>
0

> <PUBCHEM_COMPONENT_COUNT>
1

> <PUBCHEM_CACTVS_TAUTO_COUNT>
2

> <PUBCHEM_COORDINATE_TYPE>
1
5
255

> <PUBCHEM_BONDANNOTATIONS>
1  13  8
1  15  8
11  15  8
12  16  8
12  17  8
14  21  8
16  19  8
17  20  8
18  19  8
18  20  8
21  23  8
22  23  8
4  11  8
4  13  8
5  22  8
5  8  8
8  14  8

$$$$

