6772
  -OEChem-06261201303D

 30 32  0     0  0  0  0  0  0999 V2000
   -0.2197    2.5496    0.1623 O   0  0  0  0  0  0  0  0  0  0  0  0
   -0.9900   -2.7338   -0.0757 O   0  0  0  0  0  0  0  0  0  0  0  0
    0.7540    0.4120    0.1340 C   0  0  0  0  0  0  0  0  0  0  0  0
    0.5527   -0.9685    0.0706 C   0  0  0  0  0  0  0  0  0  0  0  0
   -1.7619    0.7843    0.0148 C   0  0  0  0  0  0  0  0  0  0  0  0
   -1.9632   -0.5961   -0.0482 C   0  0  0  0  0  0  0  0  0  0  0  0
    3.1456    0.0565    0.2478 C   0  0  0  0  0  0  0  0  0  0  0  0
   -0.3959    1.3388    0.1080 C   0  0  0  0  0  0  0  0  0  0  0  0
    2.0537    0.9248    0.2230 C   0  0  0  0  0  0  0  0  0  0  0  0
   -0.8132   -1.5229   -0.0224 C   0  0  0  0  0  0  0  0  0  0  0  0
    1.6512   -1.8361    0.0956 C   0  0  0  0  0  0  0  0  0  0  0  0
    4.5304    0.6033    0.3423 C   0  0  0  0  0  0  0  0  0  0  0  0
    2.9447   -1.3210    0.1840 C   0  0  0  0  0  0  0  0  0  0  0  0
   -2.8604    1.6519   -0.0105 C   0  0  0  0  0  0  0  0  0  0  0  0
   -3.2630   -1.1088   -0.1365 C   0  0  0  0  0  0  0  0  0  0  0  0
    5.1439    0.8698   -1.0297 C   0  0  0  0  0  0  0  0  0  0  0  0
   -4.1540    1.1368   -0.0983 C   0  0  0  0  0  0  0  0  0  0  0  0
   -4.3548   -0.2407   -0.1610 C   0  0  0  0  0  0  0  0  0  0  0  0
    2.2238    1.9977    0.2712 H   0  0  0  0  0  0  0  0  0  0  0  0
    1.5211   -2.9139    0.0469 H   0  0  0  0  0  0  0  0  0  0  0  0
    4.5277    1.5320    0.9266 H   0  0  0  0  0  0  0  0  0  0  0  0
    5.1708   -0.0932    0.8980 H   0  0  0  0  0  0  0  0  0  0  0  0
    3.7886   -2.0058    0.2007 H   0  0  0  0  0  0  0  0  0  0  0  0
   -2.7304    2.7298    0.0372 H   0  0  0  0  0  0  0  0  0  0  0  0
   -3.4462   -2.1788   -0.1869 H   0  0  0  0  0  0  0  0  0  0  0  0
    5.2027   -0.0491   -1.6226 H   0  0  0  0  0  0  0  0  0  0  0  0
    6.1570    1.2690   -0.9193 H   0  0  0  0  0  0  0  0  0  0  0  0
    4.5509    1.5974   -1.5941 H   0  0  0  0  0  0  0  0  0  0  0  0
   -5.0058    1.8106   -0.1177 H   0  0  0  0  0  0  0  0  0  0  0  0
   -5.3630   -0.6393   -0.2294 H   0  0  0  0  0  0  0  0  0  0  0  0
  1  8  2  0  0  0  0
  2 10  2  0  0  0  0
  3  4  2  0  0  0  0
  3  8  1  0  0  0  0
  3  9  1  0  0  0  0
  4 10  1  0  0  0  0
  4 11  1  0  0  0  0
  5  6  1  0  0  0  0
  5  8  1  0  0  0  0
  5 14  2  0  0  0  0
  6 10  1  0  0  0  0
  6 15  2  0  0  0  0
  7  9  2  0  0  0  0
  7 12  1  0  0  0  0
  7 13  1  0  0  0  0
  9 19  1  0  0  0  0
 11 13  2  0  0  0  0
 11 20  1  0  0  0  0
 12 16  1  0  0  0  0
 12 21  1  0  0  0  0
 12 22  1  0  0  0  0
 13 23  1  0  0  0  0
 14 17  1  0  0  0  0
 14 24  1  0  0  0  0
 15 18  1  0  0  0  0
 15 25  1  0  0  0  0
 16 26  1  0  0  0  0
 16 27  1  0  0  0  0
 16 28  1  0  0  0  0
 17 18  2  0  0  0  0
 17 29  1  0  0  0  0
 18 30  1  0  0  0  0
M  END
> <PUBCHEM_COMPOUND_CID>
6772

> <PUBCHEM_CONFORMER_RMSD>
0.6

> <PUBCHEM_CONFORMER_DIVERSEORDER>
1

> <PUBCHEM_MMFF94_PARTIAL_CHARGES>
24
1 -0.57
10 0.4
11 -0.15
12 0.14
13 -0.15
14 -0.15
15 -0.15
17 -0.15
18 -0.15
19 0.15
2 -0.57
20 0.15
23 0.15
24 0.15
25 0.15
29 0.15
3 0.09
30 0.15
4 0.09
5 0.09
6 0.09
7 -0.14
8 0.4
9 -0.15

> <PUBCHEM_EFFECTIVE_ROTOR_COUNT>
1

> <PUBCHEM_PHARMACOPHORE_FEATURES>
6
1 1 acceptor
1 16 hydrophobe
1 2 acceptor
6 3 4 5 6 8 10 rings
6 3 4 7 9 11 13 rings
6 5 6 14 15 17 18 rings

> <PUBCHEM_HEAVY_ATOM_COUNT>
18

> <PUBCHEM_ATOM_DEF_STEREO_COUNT>
0

> <PUBCHEM_ATOM_UDEF_STEREO_COUNT>
0

> <PUBCHEM_BOND_DEF_STEREO_COUNT>
0

> <PUBCHEM_BOND_UDEF_STEREO_COUNT>
0

> <PUBCHEM_ISOTOPIC_ATOM_COUNT>
0

> <PUBCHEM_COMPONENT_COUNT>
1

> <PUBCHEM_CACTVS_TAUTO_COUNT>
1

> <PUBCHEM_CONFORMER_ID>
00001A7400000001

> <PUBCHEM_MMFF94_ENERGY>
50.0326

> <PUBCHEM_FEATURE_SELFOVERLAP>
30.488

> <PUBCHEM_SHAPE_FINGERPRINT>
10411042 1 17474107601351897402
10498660 4 18411135870280375164
10616163 171 18337671914670670750
10759866 29 18202282528767500754
10967382 1 18410014372567155347
11132069 177 18336836363258549217
11471102 20 18410300241121213071
12011746 2 18408324371608112093
12236239 1 17846501405448342568
12390115 104 18116135822553708625
12403814 3 17561370577585519357
12954195 1 17969764462830370292
13132413 78 18410012113319568229
13140716 1 17977943484609903011
13221675 6 18410014329485574586
13380535 76 18409450293000645714
13862211 1 18409738330571249178
14790565 3 18264199399776889985
15196674 1 18410576227224755883
15442244 35 18050290559158952410
15536298 74 18334577992240054326
16945 1 18266182729800437363
17804303 29 18335138631358678185
18186145 218 18337672047851093063
193761 8 17905893574189131595
200 152 18041009440497349085
20510252 161 18260830448693189025
20602899 9 16008745792866710350
21029758 11 18261399923007952729
21029758 27 18200869578742207493
21267235 1 18410285891757049715
21501502 16 18265334091443993730
23175994 123 16950277382287087944
2334 1 18410015455088740035
23402539 116 18261683609502119046
23402655 69 18334582381812571653
23463225 33 18340208586990713595
23557571 272 18188480281741552766
23559900 14 18118408573471122930
2748010 2 18410013281851145007
296302 2 17632294583635369612
335352 9 17905329885427645063
34934 24 18411144635997220915
350125 39 18411416181816885553
474 4 17346309346520719540
4990 188 17895186727874588908
5104073 3 18411420656386487626
537710 114 18411135839967658076
69090 78 18335708242843285759
9709674 26 18408600366191189838

> <PUBCHEM_SHAPE_MULTIPOLES>
358.69
8.46
2.25
0.69
3.69
0.41
0.06
-2.17
1.2
-0.54
-0.02
0.36
-0.06
-0.28

> <PUBCHEM_SHAPE_SELFOVERLAP>
801.81

> <PUBCHEM_SHAPE_VOLUME>
189.7

> <PUBCHEM_COORDINATE_TYPE>
2
5
10

$$$$

