854006
  -OEChem-06241222463D

 44 47  0     1  0  0  0  0  0999 V2000
    0.0620    1.6670   -2.1944 O   0  0  0  0  0  0  0  0  0  0  0  0
   -2.4136    1.2705   -0.8180 N   0  0  1  0  0  0  0  0  0  0  0  0
    3.8228    1.0799    0.9331 N   0  0  0  0  0  0  0  0  0  0  0  0
   -2.5731   -0.1842    1.3301 C   0  0  2  0  0  0  0  0  0  0  0  0
   -1.0982    1.2492   -0.1244 C   0  0  1  0  0  0  0  0  0  0  0  0
   -1.1523    0.3881    1.1586 C   0  0  0  0  0  0  0  0  0  0  0  0
   -2.8597   -1.0315    0.0679 C   0  0  2  0  0  0  0  0  0  0  0  0
   -3.5389    1.0135    1.3952 C   0  0  0  0  0  0  0  0  0  0  0  0
   -2.8630   -0.0994   -1.1634 C   0  0  0  0  0  0  0  0  0  0  0  0
   -3.4141    1.8477    0.1105 C   0  0  0  0  0  0  0  0  0  0  0  0
    0.0413    0.8183   -1.0512 C   0  0  2  0  0  0  0  0  0  0  0  0
   -4.1348   -1.8122    0.1785 C   0  0  0  0  0  0  0  0  0  0  0  0
    1.3797    0.8741   -0.3587 C   0  0  0  0  0  0  0  0  0  0  0  0
    2.1904   -0.2549   -0.2334 C   0  0  0  0  0  0  0  0  0  0  0  0
   -4.2012   -3.1472    0.1348 C   0  0  0  0  0  0  0  0  0  0  0  0
    1.7765    2.0956    0.1523 C   0  0  0  0  0  0  0  0  0  0  0  0
    3.4255   -0.1047    0.4313 C   0  0  0  0  0  0  0  0  0  0  0  0
    1.8074   -1.5064   -0.7451 C   0  0  0  0  0  0  0  0  0  0  0  0
    3.0014    2.1445    0.7862 C   0  0  0  0  0  0  0  0  0  0  0  0
    4.2403   -1.2262    0.5604 C   0  0  0  0  0  0  0  0  0  0  0  0
    2.6419   -2.6111   -0.6017 C   0  0  0  0  0  0  0  0  0  0  0  0
    3.8597   -2.4705    0.0518 C   0  0  0  0  0  0  0  0  0  0  0  0
   -2.6352   -0.7853    2.2441 H   0  0  0  0  0  0  0  0  0  0  0  0
   -0.9130    2.2902    0.1733 H   0  0  0  0  0  0  0  0  0  0  0  0
   -0.8960    1.0050    2.0291 H   0  0  0  0  0  0  0  0  0  0  0  0
   -0.4433   -0.4463    1.1385 H   0  0  0  0  0  0  0  0  0  0  0  0
   -2.0264   -1.7392   -0.0523 H   0  0  0  0  0  0  0  0  0  0  0  0
   -3.2965    1.6372    2.2643 H   0  0  0  0  0  0  0  0  0  0  0  0
   -4.5724    0.6755    1.5272 H   0  0  0  0  0  0  0  0  0  0  0  0
   -2.2326   -0.5215   -1.9547 H   0  0  0  0  0  0  0  0  0  0  0  0
   -3.8600   -0.0384   -1.6211 H   0  0  0  0  0  0  0  0  0  0  0  0
   -4.3893    1.9149   -0.3884 H   0  0  0  0  0  0  0  0  0  0  0  0
   -3.1447    2.8823    0.3575 H   0  0  0  0  0  0  0  0  0  0  0  0
   -0.1886   -0.1652   -1.4463 H   0  0  0  0  0  0  0  0  0  0  0  0
   -5.0652   -1.2608    0.2869 H   0  0  0  0  0  0  0  0  0  0  0  0
    0.8781    1.4862   -2.6917 H   0  0  0  0  0  0  0  0  0  0  0  0
   -5.1577   -3.6522    0.2135 H   0  0  0  0  0  0  0  0  0  0  0  0
   -3.3121   -3.7573    0.0211 H   0  0  0  0  0  0  0  0  0  0  0  0
    1.1840    2.9978    0.0581 H   0  0  0  0  0  0  0  0  0  0  0  0
    0.8753   -1.6961   -1.2619 H   0  0  0  0  0  0  0  0  0  0  0  0
    3.3741    3.0735    1.2053 H   0  0  0  0  0  0  0  0  0  0  0  0
    5.1994   -1.1424    1.0683 H   0  0  0  0  0  0  0  0  0  0  0  0
    2.3432   -3.5773   -0.9970 H   0  0  0  0  0  0  0  0  0  0  0  0
    4.5169   -3.3273    0.1684 H   0  0  0  0  0  0  0  0  0  0  0  0
  1 11  1  0  0  0  0
  1 36  1  0  0  0  0
  2  5  1  0  0  0  0
  2  9  1  0  0  0  0
  2 10  1  0  0  0  0
  3 17  1  0  0  0  0
  3 19  2  0  0  0  0
  4  6  1  0  0  0  0
  4  7  1  0  0  0  0
  4  8  1  0  0  0  0
  4 23  1  0  0  0  0
  5  6  1  0  0  0  0
  5 11  1  0  0  0  0
  5 24  1  0  0  0  0
  6 25  1  0  0  0  0
  6 26  1  0  0  0  0
  7  9  1  0  0  0  0
  7 12  1  0  0  0  0
  7 27  1  0  0  0  0
  8 10  1  0  0  0  0
  8 28  1  0  0  0  0
  8 29  1  0  0  0  0
  9 30  1  0  0  0  0
  9 31  1  0  0  0  0
 10 32  1  0  0  0  0
 10 33  1  0  0  0  0
 11 13  1  0  0  0  0
 11 34  1  0  0  0  0
 12 15  2  0  0  0  0
 12 35  1  0  0  0  0
 13 14  1  0  0  0  0
 13 16  2  0  0  0  0
 14 17  1  0  0  0  0
 14 18  2  0  0  0  0
 15 37  1  0  0  0  0
 15 38  1  0  0  0  0
 16 19  1  0  0  0  0
 16 39  1  0  0  0  0
 17 20  2  0  0  0  0
 18 21  1  0  0  0  0
 18 40  1  0  0  0  0
 19 41  1  0  0  0  0
 20 22  1  0  0  0  0
 20 42  1  0  0  0  0
 21 22  2  0  0  0  0
 21 43  1  0  0  0  0
 22 44  1  0  0  0  0
M  END
> <PUBCHEM_COMPOUND_CID>
854006

> <PUBCHEM_CONFORMER_RMSD>
0.6

> <PUBCHEM_CONFORMER_DIVERSEORDER>
1
7
6
5
2
4
3

> <PUBCHEM_MMFF94_PARTIAL_CHARGES>
28
1 -0.68
10 0.27
11 0.42
12 -0.29
13 -0.14
15 -0.3
16 -0.15
17 0.31
18 -0.15
19 0.16
2 -0.81
20 -0.15
21 -0.15
22 -0.15
3 -0.62
35 0.15
36 0.4
37 0.15
38 0.15
39 0.15
40 0.15
41 0.15
42 0.15
43 0.15
44 0.15
5 0.27
7 0.14
9 0.27

> <PUBCHEM_EFFECTIVE_ROTOR_COUNT>
4.2

> <PUBCHEM_PHARMACOPHORE_FEATURES>
8
1 1 acceptor
1 1 donor
1 15 hydrophobe
1 2 cation
1 3 acceptor
6 14 17 18 20 21 22 rings
6 3 13 14 16 17 19 rings
8 2 4 5 6 7 8 9 10 rings

> <PUBCHEM_HEAVY_ATOM_COUNT>
22

> <PUBCHEM_ATOM_DEF_STEREO_COUNT>
4

> <PUBCHEM_ATOM_UDEF_STEREO_COUNT>
0

> <PUBCHEM_BOND_DEF_STEREO_COUNT>
0

> <PUBCHEM_BOND_UDEF_STEREO_COUNT>
0

> <PUBCHEM_ISOTOPIC_ATOM_COUNT>
0

> <PUBCHEM_COMPONENT_COUNT>
1

> <PUBCHEM_CACTVS_TAUTO_COUNT>
1

> <PUBCHEM_CONFORMER_ID>
000D07F600000001

> <PUBCHEM_MMFF94_ENERGY>
74.8421

> <PUBCHEM_FEATURE_SELFOVERLAP>
40.626

> <PUBCHEM_SHAPE_FINGERPRINT>
10366900 7 18195799683191819424
10447042 23 18116722803102280799
1100329 8 15745854065772029392
11370993 70 18334301967455588059
11405975 8 18335136527014607577
11552529 35 18113618950232638987
11582403 64 16112981681635175060
12160290 23 16700353033601747933
12346177 29 18060424637973726709
12363563 72 17203329974866657473
12422481 6 18192120838425755971
12506688 2 18337109085440018096
12553582 1 17974565003232025646
12596599 1 18188760790150415122
12633257 1 18262795310331542114
12714826 92 17771056387440791316
12892183 10 18186804642936895200
13140716 1 18334572486028450067
13224815 77 18410290289692479230
13296908 3 18130785689458742588
13533116 47 18333733507596897283
13583140 156 17822585923025898601
14178342 30 18410290298483094849
14223421 5 18335700516086155623
14289901 80 18261674783418451753
14341114 328 17241319153963113267
14429115 67 18339637820598233907
14787075 74 17317613075918670744
14790565 3 18265895749351614016
14866123 147 16677526270291884906
15099037 8 18339919325575976875
16752209 62 15769788978046499485
17492 89 18408039598044569355
1813 80 17561355197397504461
19141452 34 18341046428084159889
19862831 5 14189281708176098724
20281475 54 18342452664516575796
20691752 17 17346880056941773098
21065198 57 18409729603319127121
21065199 12 18335423460652125657
21673915 165 18337392634517193930
221490 88 18409167723176481262
22907989 373 12679176064874618347
23559900 14 18408893944411932584
3286 77 18410578362039695376
3797600 57 17096639907773965682
392239 28 17316778576916182906
463206 1 17833552293520634411
5104073 3 18333736827211050506
5895379 119 10807396060818752158
7097593 13 18260821639625619904
9709674 26 18409733984317339031

> <PUBCHEM_SHAPE_MULTIPOLES>
436.92
8.79
3.04
1.28
0.56
1.63
-0.24
4.28
2.12
-0.04
-0.08
0.43
-0.46
0.43

> <PUBCHEM_SHAPE_SELFOVERLAP>
957.68

> <PUBCHEM_SHAPE_VOLUME>
231

> <PUBCHEM_COORDINATE_TYPE>
2
5
10

$$$$

