4751
  -OEChem-06261200192D

 40 41  0     0  0  0  0  0  0999 V2000
    4.5981    1.2500    0.0000 S   0  0  0  0  0  0  0  0  0  0  0  0
    4.5981   -3.7500    0.0000 F   0  0  0  0  0  0  0  0  0  0  0  0
    2.8660   -4.7500    0.0000 O   0  0  0  0  0  0  0  0  0  0  0  0
    2.8660   -1.7500    0.0000 N   0  0  0  0  0  0  0  0  0  0  0  0
    5.4641   -0.2500    0.0000 N   0  0  0  0  0  0  0  0  0  0  0  0
    6.3301    1.2500    0.0000 N   0  0  0  0  0  0  0  0  0  0  0  0
    5.4641    2.7500    0.0000 N   0  0  0  0  0  0  0  0  0  0  0  0
    6.3301    6.2500    0.0000 N   0  0  0  0  0  0  0  0  0  0  0  0
    4.5981   -1.7500    0.0000 C   0  0  0  0  0  0  0  0  0  0  0  0
    3.7321   -2.2500    0.0000 C   0  0  0  0  0  0  0  0  0  0  0  0
    4.5981   -0.7500    0.0000 C   0  0  0  0  0  0  0  0  0  0  0  0
    3.7321   -3.2500    0.0000 C   0  0  0  0  0  0  0  0  0  0  0  0
    2.8660   -3.7500    0.0000 C   0  0  0  0  0  0  0  0  0  0  0  0
    2.0000   -3.2500    0.0000 C   0  0  0  0  0  0  0  0  0  0  0  0
    2.0000   -2.2500    0.0000 C   0  0  0  0  0  0  0  0  0  0  0  0
    2.0000   -5.2500    0.0000 C   0  0  0  0  0  0  0  0  0  0  0  0
    5.4641    0.7500    0.0000 C   0  0  0  0  0  0  0  0  0  0  0  0
    6.3301    2.2500    0.0000 C   0  0  0  0  0  0  0  0  0  0  0  0
    2.0000   -6.2500    0.0000 C   0  0  0  0  0  0  0  0  0  0  0  0
    7.1962    2.7500    0.0000 C   0  0  0  0  0  0  0  0  0  0  0  0
    7.1962    3.7500    0.0000 C   0  0  0  0  0  0  0  0  0  0  0  0
    6.3301    4.2500    0.0000 C   0  0  0  0  0  0  0  0  0  0  0  0
    5.4641    3.7500    0.0000 C   0  0  0  0  0  0  0  0  0  0  0  0
    6.3301    5.2500    0.0000 C   0  0  0  0  0  0  0  0  0  0  0  0
    4.8101   -2.3326    0.0000 H   0  0  0  0  0  0  0  0  0  0  0  0
    5.2087   -1.6423    0.0000 H   0  0  0  0  0  0  0  0  0  0  0  0
    4.3860   -0.1674    0.0000 H   0  0  0  0  0  0  0  0  0  0  0  0
    3.9875   -0.8577    0.0000 H   0  0  0  0  0  0  0  0  0  0  0  0
    1.4631   -3.5600    0.0000 H   0  0  0  0  0  0  0  0  0  0  0  0
    1.4631   -1.9400    0.0000 H   0  0  0  0  0  0  0  0  0  0  0  0
    1.7879   -4.6674    0.0000 H   0  0  0  0  0  0  0  0  0  0  0  0
    1.3894   -5.3577    0.0000 H   0  0  0  0  0  0  0  0  0  0  0  0
    6.8671    0.9400    0.0000 H   0  0  0  0  0  0  0  0  0  0  0  0
    1.3800   -6.2500    0.0000 H   0  0  0  0  0  0  0  0  0  0  0  0
    2.0000   -6.8700    0.0000 H   0  0  0  0  0  0  0  0  0  0  0  0
    2.6200   -6.2500    0.0000 H   0  0  0  0  0  0  0  0  0  0  0  0
    7.7331    2.4400    0.0000 H   0  0  0  0  0  0  0  0  0  0  0  0
    7.7331    4.0600    0.0000 H   0  0  0  0  0  0  0  0  0  0  0  0
    4.9272    4.0600    0.0000 H   0  0  0  0  0  0  0  0  0  0  0  0
    4.0611    0.9400    0.0000 H   0  0  0  0  0  0  0  0  0  0  0  0
  1 17  1  0  0  0  0
  1 40  1  0  0  0  0
  2 12  1  0  0  0  0
  3 13  1  0  0  0  0
  3 16  1  0  0  0  0
  4 10  2  0  0  0  0
  4 15  1  0  0  0  0
  5 11  1  0  0  0  0
  5 17  2  0  0  0  0
  6 17  1  0  0  0  0
  6 18  1  0  0  0  0
  6 33  1  0  0  0  0
  7 18  2  0  0  0  0
  7 23  1  0  0  0  0
  8 24  3  0  0  0  0
  9 10  1  0  0  0  0
  9 11  1  0  0  0  0
  9 25  1  0  0  0  0
  9 26  1  0  0  0  0
 10 12  1  0  0  0  0
 11 27  1  0  0  0  0
 11 28  1  0  0  0  0
 12 13  2  0  0  0  0
 13 14  1  0  0  0  0
 14 15  2  0  0  0  0
 14 29  1  0  0  0  0
 15 30  1  0  0  0  0
 16 19  1  0  0  0  0
 16 31  1  0  0  0  0
 16 32  1  0  0  0  0
 18 20  1  0  0  0  0
 19 34  1  0  0  0  0
 19 35  1  0  0  0  0
 19 36  1  0  0  0  0
 20 21  2  0  0  0  0
 20 37  1  0  0  0  0
 21 22  1  0  0  0  0
 21 38  1  0  0  0  0
 22 23  2  0  0  0  0
 22 24  1  0  0  0  0
 23 39  1  0  0  0  0
M  END
> <PUBCHEM_COMPOUND_CID>
4751

> <PUBCHEM_COMPOUND_CANONICALIZED>
1

> <PUBCHEM_CACTVS_COMPLEXITY>
469

> <PUBCHEM_CACTVS_HBOND_ACCEPTOR>
7

> <PUBCHEM_CACTVS_HBOND_DONOR>
2

> <PUBCHEM_CACTVS_ROTATABLE_BOND>
7

> <PUBCHEM_CACTVS_SUBSKEYS>
AAADceB7oQBAAAAAAAAAAAAAAAAAAAAAAAAsWAAAAAAAAAAB4AAAHwQQAAAADAzhng4/tpLIFASwBzZnZACimCkxIiAJ2CA+bJiMpuLE+ZuGOCjukBrI6C+QkAAMAAAAAAAAAAAAAAAAAAAAAAAAAAAAAA==

> <PUBCHEM_IUPAC_OPENEYE_NAME>
1-(5-cyano-2-pyridyl)-3-[2-(4-ethoxy-3-fluoro-2-pyridyl)ethyl]isothiourea

> <PUBCHEM_IUPAC_CAS_NAME>
N-(5-cyano-2-pyridinyl)-N'-[2-(4-ethoxy-3-fluoro-2-pyridinyl)ethyl]carbamimidothioic acid

> <PUBCHEM_IUPAC_NAME>
N-(5-cyanopyridin-2-yl)-N'-[2-(4-ethoxy-3-fluoropyridin-2-yl)ethyl]carbamimidothioic acid

> <PUBCHEM_IUPAC_SYSTEMATIC_NAME>
N-(5-cyanopyridin-2-yl)-N'-[2-(4-ethoxy-3-fluoranyl-pyridin-2-yl)ethyl]carbamimidothioic acid

> <PUBCHEM_IUPAC_TRADITIONAL_NAME>
1-(5-cyano-2-pyridyl)-3-[2-(4-ethoxy-3-fluoro-2-pyridyl)ethyl]isothiourea

> <PUBCHEM_IUPAC_INCHI>
InChI=1S/C16H16FN5OS/c1-2-23-13-6-8-19-12(15(13)17)5-7-20-16(24)22-14-4-3-11(9-18)10-21-14/h3-4,6,8,10H,2,5,7H2,1H3,(H2,20,21,22,24)

> <PUBCHEM_IUPAC_INCHIKEY>
PQSCCWFMTRVFDA-UHFFFAOYSA-N

> <PUBCHEM_XLOGP3_AA>
2.1

> <PUBCHEM_EXACT_MASS>
345.105959

> <PUBCHEM_MOLECULAR_FORMULA>
C16H16FN5OS

> <PUBCHEM_MOLECULAR_WEIGHT>
345.394543

> <PUBCHEM_OPENEYE_CAN_SMILES>
CCOC1=C(C(=NC=C1)CCN=C(NC2=NC=C(C=C2)C#N)S)F

> <PUBCHEM_OPENEYE_ISO_SMILES>
CCOC1=C(C(=NC=C1)CCN=C(NC2=NC=C(C=C2)C#N)S)F

> <PUBCHEM_CACTVS_TPSA>
84.2

> <PUBCHEM_MONOISOTOPIC_WEIGHT>
345.105959

> <PUBCHEM_TOTAL_CHARGE>
0

> <PUBCHEM_HEAVY_ATOM_COUNT>
24

> <PUBCHEM_ATOM_DEF_STEREO_COUNT>
0

> <PUBCHEM_ATOM_UDEF_STEREO_COUNT>
0

> <PUBCHEM_BOND_DEF_STEREO_COUNT>
0

> <PUBCHEM_BOND_UDEF_STEREO_COUNT>
0

> <PUBCHEM_ISOTOPIC_ATOM_COUNT>
0

> <PUBCHEM_COMPONENT_COUNT>
1

> <PUBCHEM_CACTVS_TAUTO_COUNT>
10

> <PUBCHEM_COORDINATE_TYPE>
1
5
255

> <PUBCHEM_BONDANNOTATIONS>
10  12  8
12  13  8
13  14  8
14  15  8
18  20  8
20  21  8
21  22  8
22  23  8
4  10  8
4  15  8
7  18  8
7  23  8

$$$$

