12482
  -OEChem-06261206592D

 26 27  0     0  0  0  0  0  0999 V2000
    2.5369    0.2500    0.0000 S   0  0  0  0  0  0  0  0  0  0  0  0
    4.2690    0.2500    0.0000 N   0  0  0  0  0  0  0  0  0  0  0  0
    3.4030   -1.2500    0.0000 C   0  0  0  0  0  0  0  0  0  0  0  0
    4.2690    1.2500    0.0000 C   0  0  0  0  0  0  0  0  0  0  0  0
    3.4030   -0.2500    0.0000 C   0  0  0  0  0  0  0  0  0  0  0  0
    4.2690   -1.7500    0.0000 C   0  0  0  0  0  0  0  0  0  0  0  0
    2.5369   -1.7500    0.0000 C   0  0  0  0  0  0  0  0  0  0  0  0
    3.4030    1.7500    0.0000 C   0  0  0  0  0  0  0  0  0  0  0  0
    5.1350    1.7500    0.0000 C   0  0  0  0  0  0  0  0  0  0  0  0
    4.2690   -2.7500    0.0000 C   0  0  0  0  0  0  0  0  0  0  0  0
    2.5369   -2.7500    0.0000 C   0  0  0  0  0  0  0  0  0  0  0  0
    3.4030   -3.2500    0.0000 C   0  0  0  0  0  0  0  0  0  0  0  0
    3.4030    2.7500    0.0000 C   0  0  0  0  0  0  0  0  0  0  0  0
    5.1350    2.7500    0.0000 C   0  0  0  0  0  0  0  0  0  0  0  0
    4.2690    3.2500    0.0000 C   0  0  0  0  0  0  0  0  0  0  0  0
    4.8059   -1.4400    0.0000 H   0  0  0  0  0  0  0  0  0  0  0  0
    2.0000   -1.4400    0.0000 H   0  0  0  0  0  0  0  0  0  0  0  0
    2.8660    1.4400    0.0000 H   0  0  0  0  0  0  0  0  0  0  0  0
    5.6719    1.4400    0.0000 H   0  0  0  0  0  0  0  0  0  0  0  0
    4.8059   -3.0600    0.0000 H   0  0  0  0  0  0  0  0  0  0  0  0
    2.0000   -3.0600    0.0000 H   0  0  0  0  0  0  0  0  0  0  0  0
    3.4030   -3.8700    0.0000 H   0  0  0  0  0  0  0  0  0  0  0  0
    2.8660    3.0600    0.0000 H   0  0  0  0  0  0  0  0  0  0  0  0
    5.6719    3.0600    0.0000 H   0  0  0  0  0  0  0  0  0  0  0  0
    4.2690    3.8700    0.0000 H   0  0  0  0  0  0  0  0  0  0  0  0
    2.0000   -0.0600    0.0000 H   0  0  0  0  0  0  0  0  0  0  0  0
  1  5  1  0  0  0  0
  1 26  1  0  0  0  0
  2  4  1  0  0  0  0
  2  5  2  0  0  0  0
  3  5  1  0  0  0  0
  3  6  2  0  0  0  0
  3  7  1  0  0  0  0
  4  8  2  0  0  0  0
  4  9  1  0  0  0  0
  6 10  1  0  0  0  0
  6 16  1  0  0  0  0
  7 11  2  0  0  0  0
  7 17  1  0  0  0  0
  8 13  1  0  0  0  0
  8 18  1  0  0  0  0
  9 14  2  0  0  0  0
  9 19  1  0  0  0  0
 10 12  2  0  0  0  0
 10 20  1  0  0  0  0
 11 12  1  0  0  0  0
 11 21  1  0  0  0  0
 12 22  1  0  0  0  0
 13 15  2  0  0  0  0
 13 23  1  0  0  0  0
 14 15  1  0  0  0  0
 14 24  1  0  0  0  0
 15 25  1  0  0  0  0
M  END
> <PUBCHEM_COMPOUND_CID>
12482

> <PUBCHEM_COMPOUND_CANONICALIZED>
1

> <PUBCHEM_CACTVS_COMPLEXITY>
213

> <PUBCHEM_CACTVS_HBOND_ACCEPTOR>
2

> <PUBCHEM_CACTVS_HBOND_DONOR>
1

> <PUBCHEM_CACTVS_ROTATABLE_BOND>
2

> <PUBCHEM_CACTVS_SUBSKEYS>
AAADccByAABAAAAAAAAAAAAAAAAAAAAAAAAwYAAAAAAAAAABQAAAHAQAAAAADAiBWAAwwIIAAASgAiRiRACCEAAgAgAIiAAgZJgIIKKAkZGAIABggAAIyAcQgAAOAAAAAAAAAAAAAAAAAAAAAAAAAAAAAA==

> <PUBCHEM_IUPAC_OPENEYE_NAME>
N-phenylbenzenecarboximidothioic acid

> <PUBCHEM_IUPAC_CAS_NAME>
N-phenylbenzenecarboximidothioic acid

> <PUBCHEM_IUPAC_NAME>
N-phenylbenzenecarboximidothioic acid

> <PUBCHEM_IUPAC_SYSTEMATIC_NAME>
N-phenylbenzenecarboximidothioic acid

> <PUBCHEM_IUPAC_TRADITIONAL_NAME>
N-phenylbenzenecarboximidothioic acid

> <PUBCHEM_IUPAC_INCHI>
InChI=1S/C13H11NS/c15-13(11-7-3-1-4-8-11)14-12-9-5-2-6-10-12/h1-10H,(H,14,15)

> <PUBCHEM_IUPAC_INCHIKEY>
BOQKCADLPNLYCZ-UHFFFAOYSA-N

> <PUBCHEM_XLOGP3_AA>
3.8

> <PUBCHEM_EXACT_MASS>
213.06122

> <PUBCHEM_MOLECULAR_FORMULA>
C13H11NS

> <PUBCHEM_MOLECULAR_WEIGHT>
213.29814

> <PUBCHEM_OPENEYE_CAN_SMILES>
C1=CC=C(C=C1)C(=NC2=CC=CC=C2)S

> <PUBCHEM_OPENEYE_ISO_SMILES>
C1=CC=C(C=C1)C(=NC2=CC=CC=C2)S

> <PUBCHEM_CACTVS_TPSA>
13.4

> <PUBCHEM_MONOISOTOPIC_WEIGHT>
213.06122

> <PUBCHEM_TOTAL_CHARGE>
0

> <PUBCHEM_HEAVY_ATOM_COUNT>
15

> <PUBCHEM_ATOM_DEF_STEREO_COUNT>
0

> <PUBCHEM_ATOM_UDEF_STEREO_COUNT>
0

> <PUBCHEM_BOND_DEF_STEREO_COUNT>
0

> <PUBCHEM_BOND_UDEF_STEREO_COUNT>
0

> <PUBCHEM_ISOTOPIC_ATOM_COUNT>
0

> <PUBCHEM_COMPONENT_COUNT>
1

> <PUBCHEM_CACTVS_TAUTO_COUNT>
2

> <PUBCHEM_COORDINATE_TYPE>
1
5
255

> <PUBCHEM_BONDANNOTATIONS>
10  12  8
11  12  8
13  15  8
14  15  8
3  6  8
3  7  8
4  8  8
4  9  8
6  10  8
7  11  8
8  13  8
9  14  8

$$$$

