4491
  -OEChem-06261200103D

 35 37  0     0  0  0  0  0  0999 V2000
   -1.1607   -2.6679    0.3535 O   0  0  0  0  0  0  0  0  0  0  0  0
    2.7480   -1.8451   -0.8862 O   0  0  0  0  0  0  0  0  0  0  0  0
    0.4084   -0.6372   -0.1442 N   0  0  0  0  0  0  0  0  0  0  0  0
    1.6145   -0.0465    0.0302 N   0  0  0  0  0  0  0  0  0  0  0  0
    6.4425    1.2550    0.3066 N   0  0  0  0  0  0  0  0  0  0  0  0
   -3.0538    0.4800    0.0684 C   0  0  0  0  0  0  0  0  0  0  0  0
   -4.3709   -0.0300   -0.0233 C   0  0  0  0  0  0  0  0  0  0  0  0
   -1.9782   -0.4143    0.1951 C   0  0  0  0  0  0  0  0  0  0  0  0
   -2.1981   -1.7914    0.2308 C   0  0  0  0  0  0  0  0  0  0  0  0
   -4.5734   -1.4192    0.0147 C   0  0  0  0  0  0  0  0  0  0  0  0
   -2.8511    1.8691    0.0306 C   0  0  0  0  0  0  0  0  0  0  0  0
   -5.4464    0.8644   -0.1502 C   0  0  0  0  0  0  0  0  0  0  0  0
   -3.4931   -2.2930    0.1410 C   0  0  0  0  0  0  0  0  0  0  0  0
   -3.9312    2.7430   -0.0953 C   0  0  0  0  0  0  0  0  0  0  0  0
   -5.2264    2.2417   -0.1857 C   0  0  0  0  0  0  0  0  0  0  0  0
   -0.5976    0.0586    0.2938 C   0  0  0  0  0  0  0  0  0  0  0  0
    4.0390   -0.0350   -0.1348 C   0  0  0  0  0  0  0  0  0  0  0  0
    2.7469   -0.7286   -0.3737 C   0  0  0  0  0  0  0  0  0  0  0  0
    5.1776   -0.7869    0.0321 C   0  0  0  0  0  0  0  0  0  0  0  0
    4.0589    1.3388   -0.0889 C   0  0  0  0  0  0  0  0  0  0  0  0
    6.3569   -0.0930    0.2505 C   0  0  0  0  0  0  0  0  0  0  0  0
    5.2881    1.9375    0.1350 C   0  0  0  0  0  0  0  0  0  0  0  0
   -5.5772   -1.8333   -0.0541 H   0  0  0  0  0  0  0  0  0  0  0  0
   -1.8660    2.3221    0.0779 H   0  0  0  0  0  0  0  0  0  0  0  0
   -6.4672    0.4948   -0.2226 H   0  0  0  0  0  0  0  0  0  0  0  0
   -3.6793   -3.3634    0.1676 H   0  0  0  0  0  0  0  0  0  0  0  0
   -3.7612    3.8153   -0.1274 H   0  0  0  0  0  0  0  0  0  0  0  0
   -6.0667    2.9226   -0.2850 H   0  0  0  0  0  0  0  0  0  0  0  0
   -0.4232    1.0403    0.7661 H   0  0  0  0  0  0  0  0  0  0  0  0
   -1.5090   -3.5759    0.3596 H   0  0  0  0  0  0  0  0  0  0  0  0
    1.6305    0.8517    0.5015 H   0  0  0  0  0  0  0  0  0  0  0  0
    5.1792   -1.8703    0.0034 H   0  0  0  0  0  0  0  0  0  0  0  0
    3.1913    1.9675   -0.2456 H   0  0  0  0  0  0  0  0  0  0  0  0
    7.2941   -0.6212    0.3920 H   0  0  0  0  0  0  0  0  0  0  0  0
    5.3808    3.0179    0.1762 H   0  0  0  0  0  0  0  0  0  0  0  0
  1  9  1  0  0  0  0
  1 30  1  0  0  0  0
  2 18  2  0  0  0  0
  3  4  1  0  0  0  0
  3 16  2  0  0  0  0
  4 18  1  0  0  0  0
  4 31  1  0  0  0  0
  5 21  2  0  0  0  0
  5 22  1  0  0  0  0
  6  7  1  0  0  0  0
  6  8  1  0  0  0  0
  6 11  2  0  0  0  0
  7 10  1  0  0  0  0
  7 12  2  0  0  0  0
  8  9  2  0  0  0  0
  8 16  1  0  0  0  0
  9 13  1  0  0  0  0
 10 13  2  0  0  0  0
 10 23  1  0  0  0  0
 11 14  1  0  0  0  0
 11 24  1  0  0  0  0
 12 15  1  0  0  0  0
 12 25  1  0  0  0  0
 13 26  1  0  0  0  0
 14 15  2  0  0  0  0
 14 27  1  0  0  0  0
 15 28  1  0  0  0  0
 16 29  1  0  0  0  0
 17 18  1  0  0  0  0
 17 19  2  0  0  0  0
 17 20  1  0  0  0  0
 19 21  1  0  0  0  0
 19 32  1  0  0  0  0
 20 22  2  0  0  0  0
 20 33  1  0  0  0  0
 21 34  1  0  0  0  0
 22 35  1  0  0  0  0
M  END
> <PUBCHEM_COMPOUND_CID>
4491

> <PUBCHEM_CONFORMER_RMSD>
0.6

> <PUBCHEM_CONFORMER_DIVERSEORDER>
2
6
7
9
4
8
1
5
3

> <PUBCHEM_MMFF94_PARTIAL_CHARGES>
33
1 -0.53
10 -0.15
11 -0.15
12 -0.15
13 -0.15
14 -0.15
15 -0.15
16 0.3
17 0.09
18 0.54
19 -0.15
2 -0.57
20 -0.15
21 0.16
22 0.16
23 0.15
24 0.15
25 0.15
26 0.15
27 0.15
28 0.15
29 0.06
3 -0.51
30 0.45
31 0.37
32 0.15
33 0.15
34 0.15
35 0.15
4 -0.37
5 -0.62
8 0.09
9 0.08

> <PUBCHEM_EFFECTIVE_ROTOR_COUNT>
4

> <PUBCHEM_PHARMACOPHORE_FEATURES>
8
1 1 donor
1 2 acceptor
1 3 acceptor
1 4 donor
1 5 acceptor
6 5 17 19 20 21 22 rings
6 6 7 11 12 14 15 rings
6 6 7 8 9 10 13 rings

> <PUBCHEM_HEAVY_ATOM_COUNT>
22

> <PUBCHEM_ATOM_DEF_STEREO_COUNT>
0

> <PUBCHEM_ATOM_UDEF_STEREO_COUNT>
0

> <PUBCHEM_BOND_DEF_STEREO_COUNT>
0

> <PUBCHEM_BOND_UDEF_STEREO_COUNT>
1

> <PUBCHEM_ISOTOPIC_ATOM_COUNT>
0

> <PUBCHEM_COMPONENT_COUNT>
1

> <PUBCHEM_CACTVS_TAUTO_COUNT>
9

> <PUBCHEM_CONFORMER_ID>
0000118B00000002

> <PUBCHEM_MMFF94_ENERGY>
72.0622

> <PUBCHEM_FEATURE_SELFOVERLAP>
40.627

> <PUBCHEM_SHAPE_FINGERPRINT>
10 15 18272644645320088273
10014705 185 18411417319450059809
10411042 1 17907295452143404395
10595046 47 18341896238866468234
10835480 77 18333454244291493592
11315181 36 17917429783068070942
11595378 159 17203341047340267636
12107183 9 17910403010856672458
12236239 1 17846781814587446274
12596602 18 17203324468560504296
12616971 3 16702294642044092870
12633257 1 14979659010125471107
13073987 5 18272652354696980195
13167372 99 18412546518356223840
13402501 40 18408044022055783720
13403585 85 18410293584053870465
13785724 45 17834117820881760074
13911987 19 16877941616002053308
14251764 75 17685769525797372097
14790565 3 17758669337099149937
14933364 13 18410290307479204724
15183329 4 18411138060855997600
15196674 1 18410292497733125644
17844677 252 18339354180767803152
18608769 82 18410571748434040915
19489759 90 18413671300832824907
20281389 69 18272370901210747945
20645477 56 18341047497283135733
20645477 70 17095795633584765246
21033648 29 17968672535845645200
21236236 1 18410013221900840471
21315763 129 18410575042193603292
21315764 268 18343588459912439756
21859007 373 17343515680025402612
23402539 116 18411141324899117895
23559900 14 18333734636798743432
245318 6 16984323605687314052
2916195 48 18411420613410505000
300161 21 18412548729567983990
3004659 81 18412261775088690570
34797466 226 17822000987335089316
3545911 37 18408601478597866124
4073 2 18131064901700105130
4214541 1 18411418414508568624
441001 317 18411419514157333545
445580 37 18339912754350146756
5104073 3 18272083950261525003
5283173 99 18409730677071422792
5969126 39 18190186689977054439
6327066 14 18199195169142651157
9981440 41 18272363183650818691
9995097 60 18408040732352947510

> <PUBCHEM_SHAPE_MULTIPOLES>
426.07
16.36
2.69
0.66
18.05
0.18
-0.02
6.6
0.29
-2.88
0.01
0.08
-0.05
0.61

> <PUBCHEM_SHAPE_SELFOVERLAP>
942.058

> <PUBCHEM_SHAPE_VOLUME>
226.8

> <PUBCHEM_COORDINATE_TYPE>
2
5
10

$$$$

