47205678
  -OEChem-06241222593D

 39 39  0     0  0  0  0  0  0999 V2000
   -3.3658    0.2193    1.4017 O   0  0  0  0  0  0  0  0  0  0  0  0
    1.5120   -1.2425    1.5687 O   0  0  0  0  0  0  0  0  0  0  0  0
   -0.9000   -0.5746   -1.1087 O   0  0  0  0  0  0  0  0  0  0  0  0
   -3.4678   -1.0914   -0.5131 N   0  0  0  0  0  0  0  0  0  0  0  0
    1.1506   -2.3102   -0.4595 N   0  0  0  0  0  0  0  0  0  0  0  0
   -0.1672   -2.5706   -0.1795 N   0  0  0  0  0  0  0  0  0  0  0  0
   -4.8593    0.8781   -0.3864 C   0  0  0  0  0  0  0  0  0  0  0  0
   -5.2579    2.0693    0.4799 C   0  0  0  0  0  0  0  0  0  0  0  0
   -3.8251   -0.0073    0.2854 C   0  0  0  0  0  0  0  0  0  0  0  0
    3.3387   -1.4131    0.0163 C   0  0  0  0  0  0  0  0  0  0  0  0
   -2.5075   -2.0717   -0.1014 C   0  0  0  0  0  0  0  0  0  0  0  0
    3.6714    0.0535   -0.0560 C   0  0  0  0  0  0  0  0  0  0  0  0
   -6.3173    2.9224   -0.1984 C   0  0  0  0  0  0  0  0  0  0  0  0
    1.9135   -1.6399    0.4763 C   0  0  0  0  0  0  0  0  0  0  0  0
   -1.1258   -1.6416   -0.5426 C   0  0  0  0  0  0  0  0  0  0  0  0
    3.4508    0.7613   -1.2376 C   0  0  0  0  0  0  0  0  0  0  0  0
    4.2007    0.7044    1.0584 C   0  0  0  0  0  0  0  0  0  0  0  0
    3.7590    2.1201   -1.3047 C   0  0  0  0  0  0  0  0  0  0  0  0
    4.5090    2.0632    0.9914 C   0  0  0  0  0  0  0  0  0  0  0  0
    4.2880    2.7710   -0.1901 C   0  0  0  0  0  0  0  0  0  0  0  0
   -4.4438    1.2291   -1.3386 H   0  0  0  0  0  0  0  0  0  0  0  0
   -5.7403    0.2642   -0.6087 H   0  0  0  0  0  0  0  0  0  0  0  0
   -4.3773    2.6865    0.6944 H   0  0  0  0  0  0  0  0  0  0  0  0
   -5.6417    1.7184    1.4454 H   0  0  0  0  0  0  0  0  0  0  0  0
    4.0049   -1.9229    0.7232 H   0  0  0  0  0  0  0  0  0  0  0  0
    3.5214   -1.8833   -0.9574 H   0  0  0  0  0  0  0  0  0  0  0  0
   -2.7653   -3.0223   -0.5776 H   0  0  0  0  0  0  0  0  0  0  0  0
   -2.5258   -2.1877    0.9869 H   0  0  0  0  0  0  0  0  0  0  0  0
   -3.8878   -1.1892   -1.4331 H   0  0  0  0  0  0  0  0  0  0  0  0
   -5.9517    3.3170   -1.1518 H   0  0  0  0  0  0  0  0  0  0  0  0
   -6.5868    3.7702    0.4392 H   0  0  0  0  0  0  0  0  0  0  0  0
   -7.2245    2.3411   -0.3918 H   0  0  0  0  0  0  0  0  0  0  0  0
    3.0370    0.2654   -2.1116 H   0  0  0  0  0  0  0  0  0  0  0  0
    4.3761    0.1643    1.9851 H   0  0  0  0  0  0  0  0  0  0  0  0
    1.4976   -2.6300   -1.3575 H   0  0  0  0  0  0  0  0  0  0  0  0
   -0.3728   -3.4437    0.2944 H   0  0  0  0  0  0  0  0  0  0  0  0
    3.5865    2.6714   -2.2244 H   0  0  0  0  0  0  0  0  0  0  0  0
    4.9207    2.5702    1.8592 H   0  0  0  0  0  0  0  0  0  0  0  0
    4.5277    3.8290   -0.2422 H   0  0  0  0  0  0  0  0  0  0  0  0
  1  9  2  0  0  0  0
  2 14  2  0  0  0  0
  3 15  2  0  0  0  0
  4  9  1  0  0  0  0
  4 11  1  0  0  0  0
  4 29  1  0  0  0  0
  5  6  1  0  0  0  0
  5 14  1  0  0  0  0
  5 35  1  0  0  0  0
  6 15  1  0  0  0  0
  6 36  1  0  0  0  0
  7  8  1  0  0  0  0
  7  9  1  0  0  0  0
  7 21  1  0  0  0  0
  7 22  1  0  0  0  0
  8 13  1  0  0  0  0
  8 23  1  0  0  0  0
  8 24  1  0  0  0  0
 10 12  1  0  0  0  0
 10 14  1  0  0  0  0
 10 25  1  0  0  0  0
 10 26  1  0  0  0  0
 11 15  1  0  0  0  0
 11 27  1  0  0  0  0
 11 28  1  0  0  0  0
 12 16  2  0  0  0  0
 12 17  1  0  0  0  0
 13 30  1  0  0  0  0
 13 31  1  0  0  0  0
 13 32  1  0  0  0  0
 16 18  1  0  0  0  0
 16 33  1  0  0  0  0
 17 19  2  0  0  0  0
 17 34  1  0  0  0  0
 18 20  2  0  0  0  0
 18 37  1  0  0  0  0
 19 20  1  0  0  0  0
 19 38  1  0  0  0  0
 20 39  1  0  0  0  0
M  END
> <PUBCHEM_COMPOUND_CID>
47205678

> <PUBCHEM_CONFORMER_RMSD>
1.2

> <PUBCHEM_CONFORMER_DIVERSEORDER>
1
18
29
4
31
2
44
34
21
33
13
16
20
46
25
27
41
7
3
26
12
43
45
19
22
30
40
23
5
28
47
9
15
24
8
42
38
36
17
11
39
6
10
35
37
32
14

> <PUBCHEM_MMFF94_PARTIAL_CHARGES>
26
1 -0.57
10 0.2
11 0.36
12 -0.14
14 0.57
15 0.57
16 -0.15
17 -0.15
18 -0.15
19 -0.15
2 -0.57
20 -0.15
29 0.37
3 -0.57
33 0.15
34 0.15
35 0.37
36 0.37
37 0.15
38 0.15
39 0.15
4 -0.73
5 -0.43
6 -0.43
7 0.06
9 0.57

> <PUBCHEM_EFFECTIVE_ROTOR_COUNT>
10

> <PUBCHEM_PHARMACOPHORE_FEATURES>
8
1 1 acceptor
1 13 hydrophobe
1 2 acceptor
1 3 acceptor
1 4 donor
1 5 donor
1 6 donor
6 12 16 17 18 19 20 rings

> <PUBCHEM_HEAVY_ATOM_COUNT>
20

> <PUBCHEM_ATOM_DEF_STEREO_COUNT>
0

> <PUBCHEM_ATOM_UDEF_STEREO_COUNT>
0

> <PUBCHEM_BOND_DEF_STEREO_COUNT>
0

> <PUBCHEM_BOND_UDEF_STEREO_COUNT>
0

> <PUBCHEM_ISOTOPIC_ATOM_COUNT>
0

> <PUBCHEM_COMPONENT_COUNT>
1

> <PUBCHEM_CACTVS_TAUTO_COUNT>
8

> <PUBCHEM_CONFORMER_ID>
02D04D2E00000001

> <PUBCHEM_MMFF94_ENERGY>
33.3087

> <PUBCHEM_FEATURE_SELFOVERLAP>
42.14

> <PUBCHEM_SHAPE_FINGERPRINT>
10042902 136 9511197277827451448
10498660 4 18113334193568254355
10763959 59 18192989541824466023
12633257 1 16056599803018907848
12824470 246 10519992577308814791
13878862 14 18127710420298343149
13965767 371 18131078151104494470
1420 369 10015864284233568213
14251740 57 10592039163508897996
14251764 75 18337660945609436217
14576447 43 8430313550258329262
14848178 5 9295294897921693585
14848178 96 18334009514563366521
15142526 21 18202282489864940667
15342168 16 18409168844247218487
17810953 82 18411981398774502588
17834072 32 18410292532103231643
193927 3 10663827377055167410
20567600 9 18263350542260413428
20715895 44 18336550520168340248
21315764 119 6266894629256572993
21315764 268 17984424307177048645
21503847 285 18343863333877642582
235170 7 15574986226594274596
23559900 14 18043529628090650575
245318 6 18130209468225741189
3472631 163 18261393386325762685
474 4 18058733490343038474
5104073 3 18202568371246170379
633830 44 18408890650098553647
7064713 232 18341899541395801268
76465 3 9295294932155136654
7808743 9 18336831866390983970
7970288 3 9294750682832629256
88748 71 9079115566267717337
960060 61 5472871388902453138

> <PUBCHEM_SHAPE_MULTIPOLES>
379.04
13.86
3.52
1.18
14.23
0.81
-0.1
14.4
-0.82
0.59
0.26
-0.8
0.22
-0.58

> <PUBCHEM_SHAPE_SELFOVERLAP>
763.845

> <PUBCHEM_SHAPE_VOLUME>
220.1

> <PUBCHEM_COORDINATE_TYPE>
2
5
10

$$$$

