9644
  -OEChem-06261203543D

 20 19  0     0  0  0  0  0  0999 V2000
    0.4643    0.0394   -1.7592 F   0  0  0  0  0  0  0  0  0  0  0  0
    1.9952    1.3155   -0.8872 F   0  0  0  0  0  0  0  0  0  0  0  0
    0.6825    1.4600    1.4550 F   0  0  0  0  0  0  0  0  0  0  0  0
   -0.4720    2.1032   -0.2702 F   0  0  0  0  0  0  0  0  0  0  0  0
    0.9258   -1.8376    0.2620 F   0  0  0  0  0  0  0  0  0  0  0  0
    2.4785   -0.5360    1.0732 F   0  0  0  0  0  0  0  0  0  0  0  0
    2.6557   -1.3184   -0.9546 F   0  0  0  0  0  0  0  0  0  0  0  0
   -2.0878    0.1329   -0.1666 O   0  0  0  0  0  0  0  0  0  0  0  0
   -1.0213   -0.6818    1.7112 O   0  0  0  0  0  0  0  0  0  0  0  0
    1.0617    0.3708   -0.5859 C   0  0  0  0  0  0  0  0  0  0  0  0
    0.0398    1.0006    0.3463 C   0  0  0  0  0  0  0  0  0  0  0  0
    1.7810   -0.8395   -0.0419 C   0  0  0  0  0  0  0  0  0  0  0  0
   -1.0668    0.0527    0.7327 C   0  0  0  0  0  0  0  0  0  0  0  0
   -3.1979   -0.7352    0.0823 C   0  0  0  0  0  0  0  0  0  0  0  0
   -4.2387   -0.5266   -0.9971 C   0  0  0  0  0  0  0  0  0  0  0  0
   -2.8565   -1.7764    0.0711 H   0  0  0  0  0  0  0  0  0  0  0  0
   -3.6296   -0.5044    1.0625 H   0  0  0  0  0  0  0  0  0  0  0  0
   -5.1034   -1.1767   -0.8374 H   0  0  0  0  0  0  0  0  0  0  0  0
   -4.5766    0.5148   -1.0103 H   0  0  0  0  0  0  0  0  0  0  0  0
   -3.8161   -0.7362   -1.9853 H   0  0  0  0  0  0  0  0  0  0  0  0
  1 10  1  0  0  0  0
  2 10  1  0  0  0  0
  3 11  1  0  0  0  0
  4 11  1  0  0  0  0
  5 12  1  0  0  0  0
  6 12  1  0  0  0  0
  7 12  1  0  0  0  0
  8 13  1  0  0  0  0
  8 14  1  0  0  0  0
  9 13  2  0  0  0  0
 10 11  1  0  0  0  0
 10 12  1  0  0  0  0
 11 13  1  0  0  0  0
 14 15  1  0  0  0  0
 14 16  1  0  0  0  0
 14 17  1  0  0  0  0
 15 18  1  0  0  0  0
 15 19  1  0  0  0  0
 15 20  1  0  0  0  0
M  END
> <PUBCHEM_COMPOUND_CID>
9644

> <PUBCHEM_CONFORMER_RMSD>
0.6

> <PUBCHEM_CONFORMER_DIVERSEORDER>
1
30
21
14
28
10
8
22
23
27
20
11
15
4
9
19
3
26
16
24
7
25
31
6
5
29
2
12
13
18
17

> <PUBCHEM_MMFF94_PARTIAL_CHARGES>
14
1 -0.34
10 0.68
11 0.74
12 1.02
13 0.66
14 0.28
2 -0.34
3 -0.34
4 -0.34
5 -0.34
6 -0.34
7 -0.34
8 -0.43
9 -0.57

> <PUBCHEM_EFFECTIVE_ROTOR_COUNT>
5

> <PUBCHEM_PHARMACOPHORE_FEATURES>
1
1 9 acceptor

> <PUBCHEM_HEAVY_ATOM_COUNT>
15

> <PUBCHEM_ATOM_DEF_STEREO_COUNT>
0

> <PUBCHEM_ATOM_UDEF_STEREO_COUNT>
0

> <PUBCHEM_BOND_DEF_STEREO_COUNT>
0

> <PUBCHEM_BOND_UDEF_STEREO_COUNT>
0

> <PUBCHEM_ISOTOPIC_ATOM_COUNT>
0

> <PUBCHEM_COMPONENT_COUNT>
1

> <PUBCHEM_CACTVS_TAUTO_COUNT>
1

> <PUBCHEM_CONFORMER_ID>
000025AC00000001

> <PUBCHEM_MMFF94_ENERGY>
6.3244

> <PUBCHEM_FEATURE_SELFOVERLAP>
5.074

> <PUBCHEM_SHAPE_FINGERPRINT>
10857977 72 14129055907367537579
12423570 1 7700202292649832552
12725867 57 18339371781380453261
13705890 14 18341337686927935439
14128692 85 18338225067866512734
15757776 16 18260269612000567351
16945 1 18131060593088030826
18186145 218 17632573860153203839
19837323 101 11670905239779756033
20201158 50 18202282519782096123
20233049 118 14979417139248055519
20645477 70 18187934933023033599
20653085 51 14045444661960811775
20671657 53 18201710808158532438
23419403 2 17624463887924702672
2748010 2 17985241011781441226
276578 36 9151170965149978847
5084963 1 17895747521427451158

> <PUBCHEM_SHAPE_MULTIPOLES>
246.04
4.67
1.53
1.33
5.08
0.29
-0.09
-1.78
1.3
-0.71
-0.02
-0.11
0
-0.01

> <PUBCHEM_SHAPE_SELFOVERLAP>
501.908

> <PUBCHEM_SHAPE_VOLUME>
142.2

> <PUBCHEM_COORDINATE_TYPE>
2
5
10

$$$$

