11747
  -OEChem-06261206043D

 15 14  0     0  0  0  0  0  0999 V2000
   -0.5220   -1.5091    0.0020 O   0  0  0  0  0  0  0  0  0  0  0  0
    2.0320   -0.8225   -0.0030 O   0  0  0  0  0  0  0  0  0  0  0  0
   -1.2962    0.7904    0.0052 C   0  0  0  0  0  0  0  0  0  0  0  0
   -0.2629   -0.3126    0.0026 C   0  0  0  0  0  0  0  0  0  0  0  0
   -2.7138    0.2433   -0.0058 C   0  0  0  0  0  0  0  0  0  0  0  0
    1.2019    0.0774   -0.0001 C   0  0  0  0  0  0  0  0  0  0  0  0
    1.5610    1.5331   -0.0008 C   0  0  0  0  0  0  0  0  0  0  0  0
   -1.1563    1.4010    0.9026 H   0  0  0  0  0  0  0  0  0  0  0  0
   -1.1487    1.4128   -0.8829 H   0  0  0  0  0  0  0  0  0  0  0  0
   -2.8919   -0.3700   -0.8954 H   0  0  0  0  0  0  0  0  0  0  0  0
   -3.4386    1.0632   -0.0049 H   0  0  0  0  0  0  0  0  0  0  0  0
   -2.9016   -0.3805    0.8744 H   0  0  0  0  0  0  0  0  0  0  0  0
    1.1752    2.0158   -0.9017 H   0  0  0  0  0  0  0  0  0  0  0  0
    1.1708    2.0180    0.8969 H   0  0  0  0  0  0  0  0  0  0  0  0
    2.6504    1.6343    0.0019 H   0  0  0  0  0  0  0  0  0  0  0  0
  1  4  2  0  0  0  0
  2  6  2  0  0  0  0
  3  4  1  0  0  0  0
  3  5  1  0  0  0  0
  3  8  1  0  0  0  0
  3  9  1  0  0  0  0
  4  6  1  0  0  0  0
  5 10  1  0  0  0  0
  5 11  1  0  0  0  0
  5 12  1  0  0  0  0
  6  7  1  0  0  0  0
  7 13  1  0  0  0  0
  7 14  1  0  0  0  0
  7 15  1  0  0  0  0
M  END
> <PUBCHEM_COMPOUND_CID>
11747

> <PUBCHEM_CONFORMER_RMSD>
0.4

> <PUBCHEM_CONFORMER_DIVERSEORDER>
1
16
15
4
12
11
9
5
7
10
21
6
8
2
19
3
20
13
17
18
14

> <PUBCHEM_MMFF94_PARTIAL_CHARGES>
6
1 -0.57
2 -0.57
3 0.06
4 0.51
6 0.51
7 0.06

> <PUBCHEM_EFFECTIVE_ROTOR_COUNT>
2

> <PUBCHEM_PHARMACOPHORE_FEATURES>
3
1 1 acceptor
1 2 acceptor
1 5 hydrophobe

> <PUBCHEM_HEAVY_ATOM_COUNT>
7

> <PUBCHEM_ATOM_DEF_STEREO_COUNT>
0

> <PUBCHEM_ATOM_UDEF_STEREO_COUNT>
0

> <PUBCHEM_BOND_DEF_STEREO_COUNT>
0

> <PUBCHEM_BOND_UDEF_STEREO_COUNT>
0

> <PUBCHEM_ISOTOPIC_ATOM_COUNT>
0

> <PUBCHEM_COMPONENT_COUNT>
1

> <PUBCHEM_CACTVS_TAUTO_COUNT>
8

> <PUBCHEM_CONFORMER_ID>
00002DE300000001

> <PUBCHEM_MMFF94_ENERGY>
3.0729

> <PUBCHEM_FEATURE_SELFOVERLAP>
15.232

> <PUBCHEM_SHAPE_FINGERPRINT>
14390081 3 18188772725748323545
20096714 4 18411418397233734416
21040471 1 18338797814571900704
23552423 10 18270964535681348110
24536 1 18266756687596685292
29004967 10 18339358702951459186
5084963 1 18260269684988676465
5460574 1 9295282846211740929

> <PUBCHEM_SHAPE_MULTIPOLES>
132.32
3.1
1.39
0.59
1.2
0.01
0
0.5
0.01
-0.44
0
0.02
0.04
0

> <PUBCHEM_SHAPE_SELFOVERLAP>
243.533

> <PUBCHEM_SHAPE_VOLUME>
83.9

> <PUBCHEM_COORDINATE_TYPE>
2
5
10

$$$$

