11517
  -OEChem-06261205463D

 38 37  0     0  0  0  0  0  0999 V2000
   -2.3618    0.2643   -0.0563 O   0  0  0  0  0  0  0  0  0  0  0  0
   -1.2395   -1.7495    0.0202 O   0  0  0  0  0  0  0  0  0  0  0  0
    2.5206    0.4726    0.0170 C   0  0  0  0  0  0  0  0  0  0  0  0
    3.8134   -0.3457    0.0303 C   0  0  0  0  0  0  0  0  0  0  0  0
    1.2886   -0.4370   -0.0248 C   0  0  0  0  0  0  0  0  0  0  0  0
    5.0454    0.5610    0.0386 C   0  0  0  0  0  0  0  0  0  0  0  0
   -0.0192    0.3532   -0.0672 C   0  0  0  0  0  0  0  0  0  0  0  0
    6.3370   -0.2558    0.0182 C   0  0  0  0  0  0  0  0  0  0  0  0
   -1.2489   -0.5275   -0.0381 C   0  0  0  0  0  0  0  0  0  0  0  0
    7.5637    0.6419   -0.0078 C   0  0  0  0  0  0  0  0  0  0  0  0
   -4.7422    0.5906   -0.0297 C   0  0  0  0  0  0  0  0  0  0  0  0
   -3.6127   -0.4293   -0.0008 C   0  0  0  0  0  0  0  0  0  0  0  0
   -6.1103   -0.0814    0.0429 C   0  0  0  0  0  0  0  0  0  0  0  0
   -7.2340    0.9425    0.0575 C   0  0  0  0  0  0  0  0  0  0  0  0
    2.4773    1.1097    0.9086 H   0  0  0  0  0  0  0  0  0  0  0  0
    2.5134    1.1359   -0.8564 H   0  0  0  0  0  0  0  0  0  0  0  0
    3.8436   -0.9966   -0.8520 H   0  0  0  0  0  0  0  0  0  0  0  0
    3.8287   -0.9964    0.9131 H   0  0  0  0  0  0  0  0  0  0  0  0
    1.2912   -1.0929    0.8548 H   0  0  0  0  0  0  0  0  0  0  0  0
    1.3433   -1.0933   -0.9025 H   0  0  0  0  0  0  0  0  0  0  0  0
    5.0269    1.1998    0.9299 H   0  0  0  0  0  0  0  0  0  0  0  0
    5.0180    1.2242   -0.8347 H   0  0  0  0  0  0  0  0  0  0  0  0
   -0.0529    0.9547   -0.9827 H   0  0  0  0  0  0  0  0  0  0  0  0
   -0.0666    1.0239    0.7985 H   0  0  0  0  0  0  0  0  0  0  0  0
    6.3819   -0.9032    0.9017 H   0  0  0  0  0  0  0  0  0  0  0  0
    6.3520   -0.9080   -0.8629 H   0  0  0  0  0  0  0  0  0  0  0  0
   -4.6180    1.2907    0.8062 H   0  0  0  0  0  0  0  0  0  0  0  0
   -4.6635    1.1962   -0.9411 H   0  0  0  0  0  0  0  0  0  0  0  0
    7.5962    1.2871    0.8760 H   0  0  0  0  0  0  0  0  0  0  0  0
    7.5655    1.2783   -0.8985 H   0  0  0  0  0  0  0  0  0  0  0  0
    8.4758    0.0371   -0.0207 H   0  0  0  0  0  0  0  0  0  0  0  0
   -3.6913   -1.1031   -0.8620 H   0  0  0  0  0  0  0  0  0  0  0  0
   -3.6584   -1.0167    0.9237 H   0  0  0  0  0  0  0  0  0  0  0  0
   -6.1758   -0.6972    0.9475 H   0  0  0  0  0  0  0  0  0  0  0  0
   -6.2424   -0.7506   -0.8152 H   0  0  0  0  0  0  0  0  0  0  0  0
   -7.2166    1.5567   -0.8486 H   0  0  0  0  0  0  0  0  0  0  0  0
   -8.2046    0.4393    0.1082 H   0  0  0  0  0  0  0  0  0  0  0  0
   -7.1495    1.6057    0.9243 H   0  0  0  0  0  0  0  0  0  0  0  0
  1  9  1  0  0  0  0
  1 12  1  0  0  0  0
  2  9  2  0  0  0  0
  3  4  1  0  0  0  0
  3  5  1  0  0  0  0
  3 15  1  0  0  0  0
  3 16  1  0  0  0  0
  4  6  1  0  0  0  0
  4 17  1  0  0  0  0
  4 18  1  0  0  0  0
  5  7  1  0  0  0  0
  5 19  1  0  0  0  0
  5 20  1  0  0  0  0
  6  8  1  0  0  0  0
  6 21  1  0  0  0  0
  6 22  1  0  0  0  0
  7  9  1  0  0  0  0
  7 23  1  0  0  0  0
  7 24  1  0  0  0  0
  8 10  1  0  0  0  0
  8 25  1  0  0  0  0
  8 26  1  0  0  0  0
 10 29  1  0  0  0  0
 10 30  1  0  0  0  0
 10 31  1  0  0  0  0
 11 12  1  0  0  0  0
 11 13  1  0  0  0  0
 11 27  1  0  0  0  0
 11 28  1  0  0  0  0
 12 32  1  0  0  0  0
 12 33  1  0  0  0  0
 13 14  1  0  0  0  0
 13 34  1  0  0  0  0
 13 35  1  0  0  0  0
 14 36  1  0  0  0  0
 14 37  1  0  0  0  0
 14 38  1  0  0  0  0
M  END
> <PUBCHEM_COMPOUND_CID>
11517

> <PUBCHEM_CONFORMER_RMSD>
1

> <PUBCHEM_CONFORMER_DIVERSEORDER>
1
124
101
39
32
160
142
10
111
30
2
47
18
99
4
150
17
112
61
49
13
139
15
56
26
43
55
83
136
41
20
118
148
51
98
5
74
25
19
23
57
28
52
64
53
100
71
92
75
16
110
156
11
45
108
58
147
68
7
59
161
127
34
50
121
81
76
6
159
72
82
144
77
62
151
131
133
24
96
157
36
91
8
155
104
48
63
137
14
149
105
102
145
46
12
135
123
97
3
94
109
42
89
126
67
153
80
114
44
95
35
152
134
130
103
119
93
85
116
86
21
66
27
69
107
132
37
40
29
87
117
65
129
120
140
84
143
158
106
54
122
154
22
38
31
90
33
115
141
78
73
146
128
138
88
79
113
60
9
125
70

> <PUBCHEM_MMFF94_PARTIAL_CHARGES>
5
1 -0.43
12 0.28
2 -0.57
7 0.06
9 0.66

> <PUBCHEM_EFFECTIVE_ROTOR_COUNT>
10

> <PUBCHEM_PHARMACOPHORE_FEATURES>
5
1 10 hydrophobe
1 14 hydrophobe
1 2 acceptor
3 3 5 7 hydrophobe
3 4 6 8 hydrophobe

> <PUBCHEM_HEAVY_ATOM_COUNT>
14

> <PUBCHEM_ATOM_DEF_STEREO_COUNT>
0

> <PUBCHEM_ATOM_UDEF_STEREO_COUNT>
0

> <PUBCHEM_BOND_DEF_STEREO_COUNT>
0

> <PUBCHEM_BOND_UDEF_STEREO_COUNT>
0

> <PUBCHEM_ISOTOPIC_ATOM_COUNT>
0

> <PUBCHEM_COMPONENT_COUNT>
1

> <PUBCHEM_CACTVS_TAUTO_COUNT>
1

> <PUBCHEM_CONFORMER_ID>
00002CFD00000001

> <PUBCHEM_MMFF94_ENERGY>
-0.5665

> <PUBCHEM_FEATURE_SELFOVERLAP>
25.384

> <PUBCHEM_SHAPE_FINGERPRINT>
11315181 36 16660361450931707395
12091667 2 18261110769135748575
12714333 28 16732984227952440567
13533116 47 17822575018610472270
14123256 10 8142086459376803853
1420 363 10735878378613766448
14251764 18 18342460339333119683
14251764 46 18410575088963333964
14729087 3 18411421734982830421
15048467 5 18410856559866753320
15716309 27 12247678266418147376
17834072 8 17967814942044577832
17834076 25 18186239528472612428
187816 3 16877661262402216515
20281389 69 18202004334987788980
20621476 8 18341612642239074166
20645477 70 16878495856605824302
20735858 18 12967130510446300840
20767249 213 18410292501880276452
21130983 4 18273493464302424644
21150785 3 14634870846794394400
21304253 13 18413108346595934548
22224240 67 14979955852537527608
23035841 295 9439401333070633885
23402539 116 18114467790430998749
23521765 1 18335421270281887044
246663 6 10879991375939978616
28498 318 18187925123433637470
33532 11 10231765483171636280
33684 2 18410294717793211880
3545911 37 18410856560014400910
42788 4 18410575084668373156
8209 1 17603586330792035396

> <PUBCHEM_SHAPE_MULTIPOLES>
276.37
21.24
1
0.6
3.95
0.2
0
-6.09
-0.37
-0.4
-0.01
0.02
-0.01
-0.01

> <PUBCHEM_SHAPE_SELFOVERLAP>
500.77

> <PUBCHEM_SHAPE_VOLUME>
177.5

> <PUBCHEM_COORDINATE_TYPE>
2
5
10

$$$$

