11393
  -OEChem-06261205373D

 24 25  0     0  0  0  0  0  0999 V2000
   -4.6834   -0.5821    0.0131 O   0  0  0  0  0  0  0  0  0  0  0  0
   -2.9997   -0.2957   -1.4826 O   0  0  0  0  0  0  0  0  0  0  0  0
    1.1491   -0.5432    0.2321 C   0  0  0  0  0  0  0  0  0  0  0  0
   -1.1175    0.2763    0.5646 C   0  0  0  0  0  0  0  0  0  0  0  0
    1.5770    0.7757   -0.0511 C   0  0  0  0  0  0  0  0  0  0  0  0
   -0.2017   -0.7760    0.5380 C   0  0  0  0  0  0  0  0  0  0  0  0
   -0.6967    1.5733    0.2857 C   0  0  0  0  0  0  0  0  0  0  0  0
    0.6415    1.8229   -0.0203 C   0  0  0  0  0  0  0  0  0  0  0  0
   -2.5487    0.0111    0.8908 C   0  0  0  0  0  0  0  0  0  0  0  0
    2.0846   -1.5902    0.2010 C   0  0  0  0  0  0  0  0  0  0  0  0
    2.9276    1.0088   -0.3572 C   0  0  0  0  0  0  0  0  0  0  0  0
    3.4227   -1.3404   -0.1048 C   0  0  0  0  0  0  0  0  0  0  0  0
    3.8435   -0.0433   -0.3833 C   0  0  0  0  0  0  0  0  0  0  0  0
   -3.3984   -0.2974   -0.3260 C   0  0  0  0  0  0  0  0  0  0  0  0
   -0.5406   -1.7877    0.7551 H   0  0  0  0  0  0  0  0  0  0  0  0
   -1.4008    2.4011    0.3008 H   0  0  0  0  0  0  0  0  0  0  0  0
    0.9482    2.8445   -0.2355 H   0  0  0  0  0  0  0  0  0  0  0  0
   -2.9832    0.8807    1.3985 H   0  0  0  0  0  0  0  0  0  0  0  0
   -2.6206   -0.8370    1.5824 H   0  0  0  0  0  0  0  0  0  0  0  0
    1.7782   -2.6119    0.4153 H   0  0  0  0  0  0  0  0  0  0  0  0
    3.2787    2.0146   -0.5782 H   0  0  0  0  0  0  0  0  0  0  0  0
    4.1361   -2.1591   -0.1254 H   0  0  0  0  0  0  0  0  0  0  0  0
    4.8854    0.1504   -0.6213 H   0  0  0  0  0  0  0  0  0  0  0  0
   -5.2333   -0.7813   -0.7745 H   0  0  0  0  0  0  0  0  0  0  0  0
  1 14  1  0  0  0  0
  1 24  1  0  0  0  0
  2 14  2  0  0  0  0
  3  5  1  0  0  0  0
  3  6  1  0  0  0  0
  3 10  2  0  0  0  0
  4  6  2  0  0  0  0
  4  7  1  0  0  0  0
  4  9  1  0  0  0  0
  5  8  1  0  0  0  0
  5 11  2  0  0  0  0
  6 15  1  0  0  0  0
  7  8  2  0  0  0  0
  7 16  1  0  0  0  0
  8 17  1  0  0  0  0
  9 14  1  0  0  0  0
  9 18  1  0  0  0  0
  9 19  1  0  0  0  0
 10 12  1  0  0  0  0
 10 20  1  0  0  0  0
 11 13  1  0  0  0  0
 11 21  1  0  0  0  0
 12 13  2  0  0  0  0
 12 22  1  0  0  0  0
 13 23  1  0  0  0  0
M  END
> <PUBCHEM_COMPOUND_CID>
11393

> <PUBCHEM_CONFORMER_RMSD>
0.6

> <PUBCHEM_CONFORMER_DIVERSEORDER>
1
4
5
6
2
3

> <PUBCHEM_MMFF94_PARTIAL_CHARGES>
20
1 -0.65
10 -0.15
11 -0.15
12 -0.15
13 -0.15
14 0.66
15 0.15
16 0.15
17 0.15
2 -0.57
20 0.15
21 0.15
22 0.15
23 0.15
24 0.5
4 -0.14
6 -0.15
7 -0.15
8 -0.15
9 0.2

> <PUBCHEM_EFFECTIVE_ROTOR_COUNT>
2

> <PUBCHEM_PHARMACOPHORE_FEATURES>
5
1 1 acceptor
1 2 acceptor
3 1 2 14 anion
6 3 4 5 6 7 8 rings
6 3 5 10 11 12 13 rings

> <PUBCHEM_HEAVY_ATOM_COUNT>
14

> <PUBCHEM_ATOM_DEF_STEREO_COUNT>
0

> <PUBCHEM_ATOM_UDEF_STEREO_COUNT>
0

> <PUBCHEM_BOND_DEF_STEREO_COUNT>
0

> <PUBCHEM_BOND_UDEF_STEREO_COUNT>
0

> <PUBCHEM_ISOTOPIC_ATOM_COUNT>
0

> <PUBCHEM_COMPONENT_COUNT>
1

> <PUBCHEM_CACTVS_TAUTO_COUNT>
1

> <PUBCHEM_CONFORMER_ID>
00002C8100000001

> <PUBCHEM_MMFF94_ENERGY>
34.2089

> <PUBCHEM_FEATURE_SELFOVERLAP>
25.456

> <PUBCHEM_SHAPE_FINGERPRINT>
10498660 4 15984282823611852303
11206711 2 18200868612363873700
11401426 45 18410016528582696232
11471102 20 18341894073670032144
11543360 7 15841252771370408426
11578080 2 17750539384408195793
11769659 78 18261113036261334962
11806522 49 18408322163926233064
12032990 46 18412818097021266458
12251169 10 8214141850038369693
13581323 91 16515404079371029748
13705890 14 18343865493744818274
14251717 144 18410573976762145530
14289901 80 15430033253602503506
14576447 43 18261680268155076615
14911166 2 18343295951322513718
14943859 89 13830128390746591561
14993402 34 18260545610741046718
15477762 27 18410292488726368759
15757776 16 18411983576523167194
16945 1 18341321224233926480
18186145 218 17632577179735668723
19422 9 18114454647467114859
200 152 18335986445133784778
20201158 50 18272928327941527010
20645477 70 18412824706992155319
20671657 53 18341330080208473516
21256008 61 18334577918993345841
21267235 1 18337098034120329122
21501502 16 18268141153393960560
21501925 9 18341619260862870154
221490 88 18125433108220916971
232386 152 16732990773714689005
23402539 116 18337674217194640782
23402655 69 18411419544053403669
23559900 14 18201715138208025666
2748010 2 17908409265499715704
581208 293 18409168788338712400
77492 1 17894623751676564473

> <PUBCHEM_SHAPE_MULTIPOLES>
276.37
6.95
1.58
0.86
3.8
0.32
0.12
-2.08
1.37
-0.9
-0.06
0.51
-0.05
-0.25

> <PUBCHEM_SHAPE_SELFOVERLAP>
600.914

> <PUBCHEM_SHAPE_VOLUME>
151.2

> <PUBCHEM_COORDINATE_TYPE>
2
5
10

$$$$

