11949
  -OEChem-06261206192D

 38 40  0     0  0  0  0  0  0999 V2000
    2.8660   -1.2673    0.0000 N   0  0  0  0  0  0  0  0  0  0  0  0
    7.1962    0.2327    0.0000 N   0  0  0  0  0  0  0  0  0  0  0  0
    6.3301    0.7327    0.0000 N   0  0  0  0  0  0  0  0  0  0  0  0
    9.7942    0.7327    0.0000 C   0  0  0  0  0  0  0  0  0  0  0  0
    9.7942    1.7327    0.0000 C   0  0  0  0  0  0  0  0  0  0  0  0
    3.7320   -0.7673    0.0000 C   0  0  0  0  0  0  0  0  0  0  0  0
    8.9282    0.2327    0.0000 C   0  0  0  0  0  0  0  0  0  0  0  0
    8.0622    0.7327    0.0000 C   0  0  0  0  0  0  0  0  0  0  0  0
    8.9282    2.2327    0.0000 C   0  0  0  0  0  0  0  0  0  0  0  0
   10.6882    0.1980    0.0000 C   0  0  0  0  0  0  0  0  0  0  0  0
   10.6882    2.2673    0.0000 C   0  0  0  0  0  0  0  0  0  0  0  0
    8.0622    1.7327    0.0000 C   0  0  0  0  0  0  0  0  0  0  0  0
    3.7320    0.2327    0.0000 C   0  0  0  0  0  0  0  0  0  0  0  0
    4.5981   -1.2673    0.0000 C   0  0  0  0  0  0  0  0  0  0  0  0
    5.4641    0.2327    0.0000 C   0  0  0  0  0  0  0  0  0  0  0  0
    4.5981    0.7327    0.0000 C   0  0  0  0  0  0  0  0  0  0  0  0
    5.4641   -0.7673    0.0000 C   0  0  0  0  0  0  0  0  0  0  0  0
   11.5942    0.7119    0.0000 C   0  0  0  0  0  0  0  0  0  0  0  0
   11.5942    1.7535    0.0000 C   0  0  0  0  0  0  0  0  0  0  0  0
    2.0000   -0.7673    0.0000 C   0  0  0  0  0  0  0  0  0  0  0  0
    2.8660   -2.2673    0.0000 C   0  0  0  0  0  0  0  0  0  0  0  0
    8.9282   -0.3873    0.0000 H   0  0  0  0  0  0  0  0  0  0  0  0
    8.9282    2.8527    0.0000 H   0  0  0  0  0  0  0  0  0  0  0  0
   10.6810   -0.4220    0.0000 H   0  0  0  0  0  0  0  0  0  0  0  0
   10.6810    2.8873    0.0000 H   0  0  0  0  0  0  0  0  0  0  0  0
    7.5252    2.0427    0.0000 H   0  0  0  0  0  0  0  0  0  0  0  0
    3.1951    0.5427    0.0000 H   0  0  0  0  0  0  0  0  0  0  0  0
    4.5981   -1.8873    0.0000 H   0  0  0  0  0  0  0  0  0  0  0  0
    4.5981    1.3527    0.0000 H   0  0  0  0  0  0  0  0  0  0  0  0
    6.0010   -1.0773    0.0000 H   0  0  0  0  0  0  0  0  0  0  0  0
   12.1300    0.3998    0.0000 H   0  0  0  0  0  0  0  0  0  0  0  0
   12.1300    2.0656    0.0000 H   0  0  0  0  0  0  0  0  0  0  0  0
    2.3100   -0.2304    0.0000 H   0  0  0  0  0  0  0  0  0  0  0  0
    1.4631   -0.4573    0.0000 H   0  0  0  0  0  0  0  0  0  0  0  0
    1.6900   -1.3043    0.0000 H   0  0  0  0  0  0  0  0  0  0  0  0
    2.2460   -2.2673    0.0000 H   0  0  0  0  0  0  0  0  0  0  0  0
    2.8660   -2.8873    0.0000 H   0  0  0  0  0  0  0  0  0  0  0  0
    3.4860   -2.2673    0.0000 H   0  0  0  0  0  0  0  0  0  0  0  0
  1  6  1  0  0  0  0
  1 20  1  0  0  0  0
  1 21  1  0  0  0  0
  2  3  2  0  0  0  0
  2  8  1  0  0  0  0
  3 15  1  0  0  0  0
  4  5  1  0  0  0  0
  4  7  1  0  0  0  0
  4 10  2  0  0  0  0
  5  9  1  0  0  0  0
  5 11  2  0  0  0  0
  6 13  2  0  0  0  0
  6 14  1  0  0  0  0
  7  8  2  0  0  0  0
  7 22  1  0  0  0  0
  8 12  1  0  0  0  0
  9 12  2  0  0  0  0
  9 23  1  0  0  0  0
 10 18  1  0  0  0  0
 10 24  1  0  0  0  0
 11 19  1  0  0  0  0
 11 25  1  0  0  0  0
 12 26  1  0  0  0  0
 13 16  1  0  0  0  0
 13 27  1  0  0  0  0
 14 17  2  0  0  0  0
 14 28  1  0  0  0  0
 15 16  2  0  0  0  0
 15 17  1  0  0  0  0
 16 29  1  0  0  0  0
 17 30  1  0  0  0  0
 18 19  2  0  0  0  0
 18 31  1  0  0  0  0
 19 32  1  0  0  0  0
 20 33  1  0  0  0  0
 20 34  1  0  0  0  0
 20 35  1  0  0  0  0
 21 36  1  0  0  0  0
 21 37  1  0  0  0  0
 21 38  1  0  0  0  0
M  END
> <PUBCHEM_COMPOUND_CID>
11949

> <PUBCHEM_COMPOUND_CANONICALIZED>
1

> <PUBCHEM_CACTVS_COMPLEXITY>
344

> <PUBCHEM_CACTVS_HBOND_ACCEPTOR>
3

> <PUBCHEM_CACTVS_HBOND_DONOR>
0

> <PUBCHEM_CACTVS_ROTATABLE_BOND>
3

> <PUBCHEM_CACTVS_SUBSKEYS>
AAADceB7AAAAAAAAAAAAAAAAAAAAAAAAAAAwYMAAAAAAAADBVAAAHAAIAAAADAiBGAQywMMAAACCAiRCQACCAAAhAgAIiAAIZIgIICLAkZGEIAhggABIyAcQgIAOiACAQAAQAAAQAQCAACAAAAAAAAAAAA==

> <PUBCHEM_IUPAC_OPENEYE_NAME>
N,N-dimethyl-4-(2-naphthylazo)aniline

> <PUBCHEM_IUPAC_CAS_NAME>
N,N-dimethyl-4-(2-naphthalenylazo)aniline

> <PUBCHEM_IUPAC_NAME>
N,N-dimethyl-4-(naphthalen-2-yldiazenyl)aniline

> <PUBCHEM_IUPAC_SYSTEMATIC_NAME>
N,N-dimethyl-4-(naphthalen-2-yldiazenyl)aniline

> <PUBCHEM_IUPAC_TRADITIONAL_NAME>
dimethyl-[4-(2-naphthylazo)phenyl]amine

> <PUBCHEM_IUPAC_INCHI>
InChI=1S/C18H17N3/c1-21(2)18-11-9-16(10-12-18)19-20-17-8-7-14-5-3-4-6-15(14)13-17/h3-13H,1-2H3

> <PUBCHEM_IUPAC_INCHIKEY>
RGYAGKVUDLVFOW-UHFFFAOYSA-N

> <PUBCHEM_XLOGP3_AA>
5.1

> <PUBCHEM_EXACT_MASS>
275.142248

> <PUBCHEM_MOLECULAR_FORMULA>
C18H17N3

> <PUBCHEM_MOLECULAR_WEIGHT>
275.34768

> <PUBCHEM_OPENEYE_CAN_SMILES>
CN(C)C1=CC=C(C=C1)N=NC2=CC3=CC=CC=C3C=C2

> <PUBCHEM_OPENEYE_ISO_SMILES>
CN(C)C1=CC=C(C=C1)N=NC2=CC3=CC=CC=C3C=C2

> <PUBCHEM_CACTVS_TPSA>
28

> <PUBCHEM_MONOISOTOPIC_WEIGHT>
275.142248

> <PUBCHEM_TOTAL_CHARGE>
0

> <PUBCHEM_HEAVY_ATOM_COUNT>
21

> <PUBCHEM_ATOM_DEF_STEREO_COUNT>
0

> <PUBCHEM_ATOM_UDEF_STEREO_COUNT>
0

> <PUBCHEM_BOND_DEF_STEREO_COUNT>
0

> <PUBCHEM_BOND_UDEF_STEREO_COUNT>
0

> <PUBCHEM_ISOTOPIC_ATOM_COUNT>
0

> <PUBCHEM_COMPONENT_COUNT>
1

> <PUBCHEM_CACTVS_TAUTO_COUNT>
1

> <PUBCHEM_COORDINATE_TYPE>
1
5
255

> <PUBCHEM_BONDANNOTATIONS>
10  18  8
11  19  8
13  16  8
14  17  8
15  16  8
15  17  8
18  19  8
4  10  8
4  5  8
4  7  8
5  11  8
5  9  8
6  13  8
6  14  8
7  8  8
8  12  8
9  12  8

$$$$

