3668
  -OEChem-06251223343D

 48 51  0     1  0  0  0  0  0999 V2000
   -7.4467   -2.1671    2.7755 I   0  0  0  0  0  0  0  0  0  0  0  0
    3.9030    0.1968   -1.0778 O   0  0  0  0  0  0  0  0  0  0  0  0
    4.6519    2.2716    1.1439 O   0  0  0  0  0  0  0  0  0  0  0  0
    5.5949   -0.0857    2.0777 O   0  0  0  0  0  0  0  0  0  0  0  0
    4.3832   -2.2833   -1.4832 O   0  0  0  0  0  0  0  0  0  0  0  0
    1.7182    0.7262   -0.2949 N   0  0  0  0  0  0  0  0  0  0  0  0
   -0.0756   -0.6006   -0.3274 N   0  0  0  0  0  0  0  0  0  0  0  0
    6.1316   -2.3812    0.0505 N   0  0  0  0  0  0  0  0  0  0  0  0
    0.6271    2.8959   -0.2296 N   0  0  0  0  0  0  0  0  0  0  0  0
   -2.8940    0.5394   -0.2829 N   0  0  0  0  0  0  0  0  0  0  0  0
   -1.8028    2.6686   -0.2278 N   0  0  0  0  0  0  0  0  0  0  0  0
    3.7502    1.1657    1.1049 C   0  0  1  0  0  0  0  0  0  0  0  0
    3.1275    1.1230   -0.2878 C   0  0  1  0  0  0  0  0  0  0  0  0
    4.5113   -0.1431    1.1722 C   0  0  1  0  0  0  0  0  0  0  0  0
    4.9620   -0.3216   -0.2635 C   0  0  1  0  0  0  0  0  0  0  0  0
    5.1142   -1.7555   -0.6491 C   0  0  0  0  0  0  0  0  0  0  0  0
    0.6312    1.5550   -0.2677 C   0  0  0  0  0  0  0  0  0  0  0  0
    1.2405   -0.5584   -0.3309 C   0  0  0  0  0  0  0  0  0  0  0  0
   -0.4695    0.7134   -0.2879 C   0  0  0  0  0  0  0  0  0  0  0  0
   -1.7230    1.3166   -0.2662 C   0  0  0  0  0  0  0  0  0  0  0  0
    6.4676   -3.7762   -0.1216 C   0  0  0  0  0  0  0  0  0  0  0  0
   -0.6400    3.3639   -0.2121 C   0  0  0  0  0  0  0  0  0  0  0  0
   -4.2092    1.1072   -0.2619 C   0  0  0  0  0  0  0  0  0  0  0  0
   -5.2780    0.0468   -0.2508 C   0  0  0  0  0  0  0  0  0  0  0  0
   -5.7459   -0.4412    0.9613 C   0  0  0  0  0  0  0  0  0  0  0  0
   -5.7795   -0.4290   -1.4544 C   0  0  0  0  0  0  0  0  0  0  0  0
   -6.7350   -1.4245    0.9702 C   0  0  0  0  0  0  0  0  0  0  0  0
   -6.7687   -1.4124   -1.4456 C   0  0  0  0  0  0  0  0  0  0  0  0
   -7.2465   -1.9101   -0.2333 C   0  0  0  0  0  0  0  0  0  0  0  0
    3.0379    1.2876    1.9267 H   0  0  0  0  0  0  0  0  0  0  0  0
    3.1786    2.0926   -0.7970 H   0  0  0  0  0  0  0  0  0  0  0  0
    3.8410   -0.9570    1.4749 H   0  0  0  0  0  0  0  0  0  0  0  0
    5.8878    0.2197   -0.4911 H   0  0  0  0  0  0  0  0  0  0  0  0
    4.1198    3.0827    1.0739 H   0  0  0  0  0  0  0  0  0  0  0  0
    5.2325    0.1365    2.9523 H   0  0  0  0  0  0  0  0  0  0  0  0
    1.8887   -1.4232   -0.3525 H   0  0  0  0  0  0  0  0  0  0  0  0
    6.6867   -1.8429    0.7093 H   0  0  0  0  0  0  0  0  0  0  0  0
    7.4537   -3.8337   -0.5889 H   0  0  0  0  0  0  0  0  0  0  0  0
    5.7316   -4.2884   -0.7456 H   0  0  0  0  0  0  0  0  0  0  0  0
    6.5070   -4.2422    0.8659 H   0  0  0  0  0  0  0  0  0  0  0  0
   -2.7793   -0.4680   -0.3147 H   0  0  0  0  0  0  0  0  0  0  0  0
   -0.7416    4.4434   -0.1812 H   0  0  0  0  0  0  0  0  0  0  0  0
   -4.3556    1.7581   -1.1338 H   0  0  0  0  0  0  0  0  0  0  0  0
   -4.3327    1.7500    0.6196 H   0  0  0  0  0  0  0  0  0  0  0  0
   -5.3385   -0.0575    1.8936 H   0  0  0  0  0  0  0  0  0  0  0  0
   -5.4127   -0.0497   -2.4039 H   0  0  0  0  0  0  0  0  0  0  0  0
   -7.1663   -1.7909   -2.3828 H   0  0  0  0  0  0  0  0  0  0  0  0
   -8.0174   -2.6764   -0.2492 H   0  0  0  0  0  0  0  0  0  0  0  0
  1 27  1  0  0  0  0
  2 13  1  0  0  0  0
  2 15  1  0  0  0  0
  3 12  1  0  0  0  0
  3 34  1  0  0  0  0
  4 14  1  0  0  0  0
  4 35  1  0  0  0  0
  5 16  2  0  0  0  0
  6 13  1  0  0  0  0
  6 17  1  0  0  0  0
  6 18  1  0  0  0  0
  7 18  2  0  0  0  0
  7 19  1  0  0  0  0
  8 16  1  0  0  0  0
  8 21  1  0  0  0  0
  8 37  1  0  0  0  0
  9 17  2  0  0  0  0
  9 22  1  0  0  0  0
 10 20  1  0  0  0  0
 10 23  1  0  0  0  0
 10 41  1  0  0  0  0
 11 20  1  0  0  0  0
 11 22  2  0  0  0  0
 12 13  1  0  0  0  0
 12 14  1  0  0  0  0
 12 30  1  0  0  0  0
 13 31  1  0  0  0  0
 14 15  1  0  0  0  0
 14 32  1  0  0  0  0
 15 16  1  0  0  0  0
 15 33  1  0  0  0  0
 17 19  1  0  0  0  0
 18 36  1  0  0  0  0
 19 20  2  0  0  0  0
 21 38  1  0  0  0  0
 21 39  1  0  0  0  0
 21 40  1  0  0  0  0
 22 42  1  0  0  0  0
 23 24  1  0  0  0  0
 23 43  1  0  0  0  0
 23 44  1  0  0  0  0
 24 25  2  0  0  0  0
 24 26  1  0  0  0  0
 25 27  1  0  0  0  0
 25 45  1  0  0  0  0
 26 28  2  0  0  0  0
 26 46  1  0  0  0  0
 27 29  2  0  0  0  0
 28 29  1  0  0  0  0
 28 47  1  0  0  0  0
 29 48  1  0  0  0  0
M  END
> <PUBCHEM_COMPOUND_CID>
3668

> <PUBCHEM_CONFORMER_RMSD>
1.4

> <PUBCHEM_CONFORMER_DIVERSEORDER>
1
89
22
105
60
129
111
54
134
120
51
40
90
119
33
45
79
135
133
78
108
122
116
77
61
43
15
55
114
125
74
128
6
62
7
21
18
13
8
106
88
49
20
140
101
25
50
98
142
64
37
26
131
92
127
109
2
113
87
103
139
24
76
123
130
91
102
59
38
56
39
27
57
41
84
144
16
95
58
10
17
28
70
138
117
32
66
9
100
83
121
65
112
68
143
97
141
44
126
29
31
136
19
11
93
34
53
115
94
5
36
75
104
12
118
47
72
3
82
96
124
23
4
85
73
132
63
81
99
80
110
48
52
30
46
86
107
69
67
137
14
35
71
42

> <PUBCHEM_MMFF94_PARTIAL_CHARGES>
39
1 -0.08
10 -0.87
11 -0.62
12 0.28
13 0.54
14 0.28
15 0.34
16 0.57
17 0.11
18 0.04
19 0.23
2 -0.56
20 0.41
21 0.3
22 0.47
23 0.51
24 -0.14
25 -0.15
26 -0.15
27 0.08
28 -0.15
29 -0.15
3 -0.68
34 0.4
35 0.4
36 0.15
37 0.37
4 -0.68
41 0.4
42 0.15
45 0.15
46 0.15
47 0.15
48 0.15
5 -0.57
6 0.05
7 -0.57
8 -0.73
9 -0.57

> <PUBCHEM_EFFECTIVE_ROTOR_COUNT>
7

> <PUBCHEM_PHARMACOPHORE_FEATURES>
17
1 1 hydrophobe
1 10 cation
1 10 donor
1 2 acceptor
1 3 acceptor
1 3 donor
1 4 acceptor
1 4 donor
1 5 acceptor
1 8 donor
3 6 7 18 cation
3 6 9 17 cation
3 9 11 22 cation
5 2 12 13 14 15 rings
5 6 7 17 18 19 rings
6 24 25 26 27 28 29 rings
6 9 11 17 19 20 22 rings

> <PUBCHEM_HEAVY_ATOM_COUNT>
29

> <PUBCHEM_ATOM_DEF_STEREO_COUNT>
0

> <PUBCHEM_ATOM_UDEF_STEREO_COUNT>
4

> <PUBCHEM_BOND_DEF_STEREO_COUNT>
0

> <PUBCHEM_BOND_UDEF_STEREO_COUNT>
0

> <PUBCHEM_ISOTOPIC_ATOM_COUNT>
0

> <PUBCHEM_COMPONENT_COUNT>
1

> <PUBCHEM_CACTVS_TAUTO_COUNT>
6

> <PUBCHEM_CONFORMER_ID>
00000E5400000001

> <PUBCHEM_MMFF94_ENERGY>
65.7288

> <PUBCHEM_FEATURE_SELFOVERLAP>
86.898

> <PUBCHEM_SHAPE_FINGERPRINT>
10280341 67 10302654258038002662
117089 54 18267013046011805238
11963148 33 18412833490253685871
12120059 9 18267330718898514071
12166972 35 18187362104170259721
12422481 6 17458345273111407861
12623949 98 17968087664373669294
12661589 4 18060421335355354186
13533116 47 18260831488497046704
13782708 43 18410012182017763958
13862211 1 18410295809089490709
14123256 34 18272928311310160507
14211702 104 18341612637633026403
14598715 104 6266904537488038643
14849402 71 17024876953183936401
15183329 4 18260546693505841935
15510800 12 18272646844264404659
17492 89 18337956804800515964
18222031 100 17704070711603429332
18335252 98 18342171142553732980
20028762 73 18333734598144720159
20281389 69 7565349730340312127
21130935 74 18334012762102208179
21424621 283 8214136356907223293
21585482 310 18272362058316353083
21682296 61 18410292523703266223
22149856 69 18335408080843763345
2303208 19 18413389843452734437
23522609 53 18120339212299177277
23569943 247 18263363745402331899
24771750 20 17339828686915587781
2748736 6 9151170922590806407
2838139 119 9943541691172581937
312425 54 17240760658397244763
3383291 50 18271807887503348219
3504750 166 18040718095796588149
3663271 9 16877941603771350547
4340502 62 15213012735080969349
44880568 143 17132120143207284909
465052 167 18410006628640842188
50009960 94 17911818056595046826
5104073 3 17894911870778226681
5718773 13 18338802333379026478
6328613 192 10303806597045249879
636775 8 18266729355237925062
999808 66 18201710735898721971

> <PUBCHEM_SHAPE_MULTIPOLES>
555.38
22.26
3.46
1.63
18.04
0.32
0.81
22.39
4.26
-3.36
0.19
2.07
0.98
3.21

> <PUBCHEM_SHAPE_SELFOVERLAP>
1185.274

> <PUBCHEM_SHAPE_VOLUME>
315.6

> <PUBCHEM_COORDINATE_TYPE>
2
5
10

$$$$

