854104
  -OEChem-06241222473D

 38 40  0     0  0  0  0  0  0999 V2000
   -1.9038    2.6272    0.8753 Cl  0  0  0  0  0  0  0  0  0  0  0  0
    1.8813   -1.8636    0.2269 O   0  0  0  0  0  0  0  0  0  0  0  0
    3.9996   -2.6423   -0.1953 O   0  0  0  0  0  0  0  0  0  0  0  0
   -2.5285   -0.2968    1.1546 O   0  0  0  0  0  0  0  0  0  0  0  0
    3.5401    2.0308   -0.3447 C   0  0  0  0  0  0  0  0  0  0  0  0
    4.8713    1.5823   -0.9601 C   0  0  0  0  0  0  0  0  0  0  0  0
    2.8415    0.7339   -0.1215 C   0  0  0  0  0  0  0  0  0  0  0  0
    5.0584    0.1118   -0.5734 C   0  0  0  0  0  0  0  0  0  0  0  0
    3.6675   -0.3063   -0.2485 C   0  0  0  0  0  0  0  0  0  0  0  0
    1.4435    0.5441    0.2068 C   0  0  0  0  0  0  0  0  0  0  0  0
    0.9940   -0.7685    0.3729 C   0  0  0  0  0  0  0  0  0  0  0  0
    3.2324   -1.6948   -0.0786 C   0  0  0  0  0  0  0  0  0  0  0  0
    0.5306    1.5886    0.3675 C   0  0  0  0  0  0  0  0  0  0  0  0
   -0.3318   -1.0588    0.6887 C   0  0  0  0  0  0  0  0  0  0  0  0
   -1.2327   -0.0083    0.8443 C   0  0  0  0  0  0  0  0  0  0  0  0
   -0.8031    1.3111    0.6849 C   0  0  0  0  0  0  0  0  0  0  0  0
   -3.2511   -1.1054    0.2290 C   0  0  0  0  0  0  0  0  0  0  0  0
   -4.6984   -0.7260    0.2589 C   0  0  0  0  0  0  0  0  0  0  0  0
   -5.4472   -0.2233   -0.7408 C   0  0  0  0  0  0  0  0  0  0  0  0
   -6.8997    0.1035   -0.5120 C   0  0  0  0  0  0  0  0  0  0  0  0
   -4.9638    0.0608   -2.1348 C   0  0  0  0  0  0  0  0  0  0  0  0
    3.0044    2.6924   -1.0323 H   0  0  0  0  0  0  0  0  0  0  0  0
    3.7001    2.5530    0.6047 H   0  0  0  0  0  0  0  0  0  0  0  0
    4.8194    1.6713   -2.0534 H   0  0  0  0  0  0  0  0  0  0  0  0
    5.7081    2.2046   -0.6263 H   0  0  0  0  0  0  0  0  0  0  0  0
    5.7048    0.0120    0.3049 H   0  0  0  0  0  0  0  0  0  0  0  0
    5.4882   -0.4598   -1.4013 H   0  0  0  0  0  0  0  0  0  0  0  0
    0.8519    2.6209    0.2479 H   0  0  0  0  0  0  0  0  0  0  0  0
   -0.6463   -2.0903    0.8187 H   0  0  0  0  0  0  0  0  0  0  0  0
   -2.8216   -1.0300   -0.7742 H   0  0  0  0  0  0  0  0  0  0  0  0
   -3.1616   -2.1518    0.5441 H   0  0  0  0  0  0  0  0  0  0  0  0
   -5.1775   -0.8844    1.2245 H   0  0  0  0  0  0  0  0  0  0  0  0
   -7.0816    1.1680   -0.6925 H   0  0  0  0  0  0  0  0  0  0  0  0
   -7.5303   -0.4776   -1.1929 H   0  0  0  0  0  0  0  0  0  0  0  0
   -7.2226   -0.1193    0.5104 H   0  0  0  0  0  0  0  0  0  0  0  0
   -5.1445    1.1115   -2.3864 H   0  0  0  0  0  0  0  0  0  0  0  0
   -3.8978   -0.1224   -2.2792 H   0  0  0  0  0  0  0  0  0  0  0  0
   -5.5062   -0.5620   -2.8539 H   0  0  0  0  0  0  0  0  0  0  0  0
  1 16  1  0  0  0  0
  2 11  1  0  0  0  0
  2 12  1  0  0  0  0
  3 12  2  0  0  0  0
  4 15  1  0  0  0  0
  4 17  1  0  0  0  0
  5  6  1  0  0  0  0
  5  7  1  0  0  0  0
  5 22  1  0  0  0  0
  5 23  1  0  0  0  0
  6  8  1  0  0  0  0
  6 24  1  0  0  0  0
  6 25  1  0  0  0  0
  7  9  2  0  0  0  0
  7 10  1  0  0  0  0
  8  9  1  0  0  0  0
  8 26  1  0  0  0  0
  8 27  1  0  0  0  0
  9 12  1  0  0  0  0
 10 11  1  0  0  0  0
 10 13  2  0  0  0  0
 11 14  2  0  0  0  0
 13 16  1  0  0  0  0
 13 28  1  0  0  0  0
 14 15  1  0  0  0  0
 14 29  1  0  0  0  0
 15 16  2  0  0  0  0
 17 18  1  0  0  0  0
 17 30  1  0  0  0  0
 17 31  1  0  0  0  0
 18 19  2  0  0  0  0
 18 32  1  0  0  0  0
 19 20  1  0  0  0  0
 19 21  1  0  0  0  0
 20 33  1  0  0  0  0
 20 34  1  0  0  0  0
 20 35  1  0  0  0  0
 21 36  1  0  0  0  0
 21 37  1  0  0  0  0
 21 38  1  0  0  0  0
M  END
> <PUBCHEM_COMPOUND_CID>
854104

> <PUBCHEM_CONFORMER_RMSD>
0.6

> <PUBCHEM_CONFORMER_DIVERSEORDER>
3
30
49
29
17
40
31
9
11
24
48
5
33
4
44
47
41
32
46
26
15
19
43
23
12
18
37
7
34
2
42
1
21
8
16
38
20
6
27
14
36
35
39
25
28
22
10
13
45

> <PUBCHEM_MMFF94_PARTIAL_CHARGES>
23
1 -0.18
10 0.03
11 0.08
12 0.71
13 -0.15
14 -0.15
15 0.08
16 0.18
17 0.42
18 -0.29
19 -0.28
2 -0.23
20 0.14
21 0.14
28 0.15
29 0.15
3 -0.57
32 0.15
4 -0.36
5 0.14
7 -0.17
8 0.14
9 -0.12

> <PUBCHEM_EFFECTIVE_ROTOR_COUNT>
3.6

> <PUBCHEM_PHARMACOPHORE_FEATURES>
6
1 3 acceptor
1 4 acceptor
3 19 20 21 hydrophobe
5 5 6 7 8 9 rings
6 10 11 13 14 15 16 rings
6 2 7 9 10 11 12 rings

> <PUBCHEM_HEAVY_ATOM_COUNT>
21

> <PUBCHEM_ATOM_DEF_STEREO_COUNT>
0

> <PUBCHEM_ATOM_UDEF_STEREO_COUNT>
0

> <PUBCHEM_BOND_DEF_STEREO_COUNT>
0

> <PUBCHEM_BOND_UDEF_STEREO_COUNT>
0

> <PUBCHEM_ISOTOPIC_ATOM_COUNT>
0

> <PUBCHEM_COMPONENT_COUNT>
1

> <PUBCHEM_CACTVS_TAUTO_COUNT>
1

> <PUBCHEM_CONFORMER_ID>
000D085800000003

> <PUBCHEM_MMFF94_ENERGY>
60.0874

> <PUBCHEM_FEATURE_SELFOVERLAP>
30.546

> <PUBCHEM_SHAPE_FINGERPRINT>
10447042 23 18335423473769012630
10693767 8 18115016515944165230
11471102 20 18412257312237627994
11796584 16 16226051059599377735
12236239 1 17676482843880969339
12670543 26 18412544319011045989
12730499 353 17917991689798458123
12788726 201 17822005454428066441
12916748 109 16200435780140733621
13540713 5 18191573362690583328
13668630 136 17240479178951149911
14573314 32 18131353016294964829
14576447 43 18187367584289793239
15183329 4 18260831519015517757
15196674 1 18338506556239821808
15295992 7 13038893396607732357
15475509 35 14129328650633532022
17959699 21 18060422417280462413
18222031 100 16660363671160631193
18769570 83 15698009521827504805
200 152 18259984881560011017
20612939 158 18413105078425683795
20645477 70 18411979178281841098
21267235 1 18337374012018871002
21501502 16 18266165296733950536
21637258 2 15647044989037387004
221357 26 18339935870233346877
22289505 5 18343586235203464596
23402539 116 18186796985321403681
23402655 69 18411418393192046155
23559900 14 18339079268448672440
23622692 118 18263362658742950402
23622692 88 9871752394550372520
25147074 1 18263074573352726769
2871803 45 18410006637483958104
29717793 49 17967243217588911558
3004659 81 18342741835890343770
351380 3 17385724669380918943
4072396 5 18271538520049026240
46194498 28 17774442655990353125
5104073 3 18338786931768222056
5283173 99 18130795602591869941
602551 16 15285361691157484031
7164475 11 18263360446507998736
7495541 125 6194564415683620426
8863177 126 6338957788702035820
960060 61 18333454222721178871
9709674 26 18339343258813805666

> <PUBCHEM_SHAPE_MULTIPOLES>
416.43
13.28
2.24
1.14
13.95
0.24
0.39
-0.88
6.13
-2.14
-0.3
1.22
0.18
-0.51

> <PUBCHEM_SHAPE_SELFOVERLAP>
888.413

> <PUBCHEM_SHAPE_VOLUME>
233

> <PUBCHEM_COORDINATE_TYPE>
2
5
10

$$$$

